File E:\SEM 2\SUMMER PROJECTS\DesCon\Assignments\A2 Q.2\FILES\A2 Q.2.$2k was saved on m/d/yy at h:mm:ss
 
TABLE:  "ACTIVE DEGREES OF FREEDOM"
   UX=Yes   UY=Yes   UZ=Yes   RX=Yes   RY=Yes   RZ=Yes
 
TABLE:  "ANALYSIS OPTIONS"
   Solver=Advanced   SolverProc=Auto   Force32Bit=No   StiffCase=None   GeomMod=None   HingeOpt="In Elements"
 
TABLE:  "AREA AUTO MESH ASSIGNMENTS"
   Area=1   MeshType="Points On Edges"   MeshGroup=ALL   PtsFromLine=Yes   PtsFromPt=Yes   LocalEdge=No   LocalFace=No   SuppEdge=No   SuppFace=No   SubMesh=No
   Area=4   MeshType="Points On Edges"   MeshGroup=ALL   PtsFromLine=Yes   PtsFromPt=Yes   LocalEdge=No   LocalFace=No   SuppEdge=No   SuppFace=No   SubMesh=No
   Area=5   MeshType="Points On Edges"   MeshGroup=ALL   PtsFromLine=Yes   PtsFromPt=Yes   LocalEdge=No   LocalFace=No   SuppEdge=No   SuppFace=No   SubMesh=No
   Area=7   MeshType="Points On Edges"   MeshGroup=ALL   PtsFromLine=Yes   PtsFromPt=Yes   LocalEdge=No   LocalFace=No   SuppEdge=No   SuppFace=No   SubMesh=No
   Area=8   MeshType="Points On Edges"   MeshGroup=ALL   PtsFromLine=Yes   PtsFromPt=Yes   LocalEdge=No   LocalFace=No   SuppEdge=No   SuppFace=No   SubMesh=No
   Area=9   MeshType="Points On Edges"   MeshGroup=ALL   PtsFromLine=Yes   PtsFromPt=Yes   LocalEdge=No   LocalFace=No   SuppEdge=No   SuppFace=No   SubMesh=No
 
TABLE:  "AREA SECTION ASSIGNMENTS"
   Area=1   Section=ASEC1   MatProp=Default
   Area=4   Section=ASEC1   MatProp=Default
   Area=5   Section=ASEC1   MatProp=Default
   Area=7   Section=ASEC1   MatProp=Default
   Area=8   Section=ASEC1   MatProp=Default
   Area=9   Section=ASEC1   MatProp=Default
 
TABLE:  "AREA SECTION PROPERTIES"
   Section=ASEC1   Material=4000Psi   MatAngle=0   AreaType=Shell   Type=Shell-Thin   DrillDOF=Yes   Thickness=0.3048   BendThick=0.3048   Color=Red   F11Mod=1   F22Mod=1   F12Mod=1   M11Mod=1   M22Mod=1   M12Mod=1   V13Mod=1   V23Mod=1 _
        MMod=1   WMod=1   Notes="Added 1/1/2019 11:53:44 AM"
 
TABLE:  "AREA SECTION PROPERTY DESIGN PARAMETERS"
   Section=ASEC1   RebarMat=None   RebarOpt=Default
 
TABLE:  "AREA SECTION PROPERTY - TIME DEPENDENT"
   Section=ASEC1   TypeSize=Auto   AutoSFSize=1
 
TABLE:  "AREA STIFFNESS MODIFIERS"
   Area=1   f11=0   f22=0   f12=1   m11=1   m22=1   m12=1   v13=1   v23=1   MassMod=1   WeightMod=1
   Area=4   f11=0   f22=0   f12=1   m11=1   m22=1   m12=1   v13=1   v23=1   MassMod=1   WeightMod=1
   Area=5   f11=0   f22=0   f12=1   m11=1   m22=1   m12=1   v13=1   v23=1   MassMod=1   WeightMod=1
   Area=7   f11=0   f22=0   f12=1   m11=1   m22=1   m12=1   v13=1   v23=1   MassMod=1   WeightMod=1
   Area=8   f11=0   f22=0   f12=1   m11=1   m22=1   m12=1   v13=1   v23=1   MassMod=1   WeightMod=1
   Area=9   f11=0   f22=0   f12=1   m11=1   m22=1   m12=1   v13=1   v23=1   MassMod=1   WeightMod=1
 
TABLE:  "AUTO WAVE 3 - WAVE CHARACTERISTICS - GENERAL"
   WaveChar=Default   WaveType="From Theory"   KinFactor=1   SWaterDepth=150   WaveHeight=60   WavePeriod=12   WaveTheory=Linear
 
TABLE:  "CASE - MODAL 1 - GENERAL"
   Case=MODAL   ModeType=Eigen   MaxNumModes=12   MinNumModes=1   EigenShift=0   EigenCutoff=0   EigenTol=1E-09   AutoShift=Yes
 
TABLE:  "CASE - STATIC 1 - LOAD ASSIGNMENTS"
   Case=DEAD   LoadType="Load pattern"   LoadName=DEAD   LoadSF=1
 
TABLE:  "CONNECTIVITY - AREA"
   Area=1   Joint1=31   Joint2=37   Joint3=11   Joint4=5   GUID=e76bc890-3632-4e18-a9c4-1415446210f6
   Area=4   Joint1=41   Joint2=36   Joint3=10   Joint4=16   GUID=4dfa9458-6c26-4944-9e5c-0e74a38ceddb
   Area=5   Joint1=37   Joint2=32   Joint3=6   Joint4=11   GUID=ce834e09-9523-4ecd-94c5-969cc0f1aa51
   Area=7   Joint1=32   Joint2=39   Joint3=14   Joint4=6   GUID=dc79aa9c-d7d3-4437-9a08-b9cb168a2f6a
   Area=8   Joint1=39   Joint2=34   Joint3=8   Joint4=14   GUID=ef7f2572-8cfe-4cab-8c57-92c99f0c1f56
   Area=9   Joint1=34   Joint2=41   Joint3=16   Joint4=8   GUID=f47837a0-f25e-4a35-ae2a-7479a69a9a6f
 
TABLE:  "CONNECTIVITY - FRAME"
   Frame=3   JointI=4   JointJ=5   IsCurved=No   GUID=16176405-976b-4347-911d-49fd099965a4
   Frame=4   JointI=4   JointJ=6   IsCurved=No   GUID=6cf16df8-9427-4fbf-b67e-6db6fb74546d
   Frame=5   JointI=6   JointJ=7   IsCurved=No   GUID=06789672-4396-450a-bbf6-dcdbfd4b4694
   Frame=6   JointI=7   JointJ=8   IsCurved=No   GUID=1b43524d-182d-49ba-9568-7e75a2a07b7f
   Frame=7   JointI=8   JointJ=9   IsCurved=No   GUID=cf256045-c403-49ec-9dfd-6951ca47fdb9
   Frame=8   JointI=9   JointJ=10   IsCurved=No   GUID=3a09d9e2-b076-48f2-84d5-646780d0c618
   Frame=9   JointI=4   JointJ=11   IsCurved=No   GUID=2ba1fdc4-d79b-442f-9da1-49b714a6340e
   Frame=11   JointI=5   JointJ=11   IsCurved=No   GUID=02472a8a-7bec-4d11-8b9c-9e9df3050083
   Frame=12   JointI=11   JointJ=6   IsCurved=No   GUID=d027ba76-db1e-45c4-93fb-c1718ba45ba8
   Frame=13   JointI=6   JointJ=13   IsCurved=No   GUID=20a1474a-e3dc-4249-84f0-1636ea53c196
   Frame=14   JointI=6   JointJ=14   IsCurved=No   GUID=7439ec99-8930-4196-8fe9-add7905a848f
   Frame=15   JointI=14   JointJ=7   IsCurved=No   GUID=160f1459-c668-4ab6-91b2-cf811b6024bf
   Frame=16   JointI=14   JointJ=8   IsCurved=No   GUID=9a158a03-1e47-4e90-a1bb-3992e3e3dca4
   Frame=17   JointI=8   JointJ=15   IsCurved=No   GUID=30959204-6430-45aa-8f54-4d1f59a51c8e
   Frame=18   JointI=8   JointJ=16   IsCurved=No   GUID=ece0f9fb-4282-41c0-bb0f-8d9bccc4c5d6
   Frame=19   JointI=16   JointJ=9   IsCurved=No   GUID=3c226304-4dee-4194-b632-2ac3e33ffebf
   Frame=20   JointI=16   JointJ=10   IsCurved=No   GUID=e8bee993-53a5-485a-8925-6093a4ab039b
   Frame=23   JointI=15   JointJ=9   IsCurved=No   GUID=06cdf711-1166-43cc-a5b5-bba04814293e
   Frame=24   JointI=7   JointJ=15   IsCurved=No   GUID=c8b5c49c-7b1b-4c95-9086-18d50778de0b
   Frame=25   JointI=13   JointJ=7   IsCurved=No   GUID=d213af67-cd0b-4d78-a078-039adac416f1
   Frame=26   JointI=4   JointJ=13   IsCurved=No   GUID=b012aa57-9e88-46ca-90bf-fbd9bb261dea
   Frame=48   JointI=30   JointJ=31   IsCurved=No   GUID=ef5042a9-c168-419f-8c4e-afae1655db19
   Frame=49   JointI=30   JointJ=32   IsCurved=No   GUID=3bcc9db8-024f-4432-9ca2-a1b6dc77b413
   Frame=50   JointI=32   JointJ=33   IsCurved=No   GUID=999e2986-b7d3-430f-9cca-6738e2bf80aa
   Frame=51   JointI=33   JointJ=34   IsCurved=No   GUID=198897ec-5c6a-47cb-9796-325a88c7008a
   Frame=52   JointI=34   JointJ=35   IsCurved=No   GUID=7a37aa0c-e23c-48f1-9c00-63df0c08b813
   Frame=53   JointI=35   JointJ=36   IsCurved=No   GUID=35074f1d-8360-4745-8a02-78d3bc08b7c8
   Frame=54   JointI=30   JointJ=37   IsCurved=No   GUID=cf874fef-3e4a-437b-affc-6ca73f533e5e
   Frame=55   JointI=31   JointJ=37   IsCurved=No   GUID=992e0c41-1f24-4f24-a3f5-8c975cc343e1
   Frame=56   JointI=37   JointJ=32   IsCurved=No   GUID=642c0141-df4c-4bca-9d40-5b4fb29105f2
   Frame=57   JointI=32   JointJ=38   IsCurved=No   GUID=cf4d8026-9ee1-4d18-b609-42a03c5d4b50
   Frame=58   JointI=32   JointJ=39   IsCurved=No   GUID=2af55394-1c33-4aa4-8718-e2602e8b49f6
   Frame=59   JointI=39   JointJ=33   IsCurved=No   GUID=f8ae4ed0-0069-4944-b18f-2f12d58c0724
   Frame=60   JointI=39   JointJ=34   IsCurved=No   GUID=8a0bb6e7-5989-4df4-b364-346fa9caf421
   Frame=61   JointI=34   JointJ=40   IsCurved=No   GUID=de15432f-2bb7-43e2-9d14-0c0dcad2c385
   Frame=62   JointI=34   JointJ=41   IsCurved=No   GUID=5021326c-92ce-44b7-bfc2-803787fdee80
   Frame=63   JointI=41   JointJ=35   IsCurved=No   GUID=db8f1e63-3a83-4a35-9ade-48f87a0ec167
   Frame=64   JointI=41   JointJ=36   IsCurved=No   GUID=10daed70-ce3b-4a6c-bb16-e542369ad08e
   Frame=65   JointI=40   JointJ=35   IsCurved=No   GUID=a6109459-f47f-4981-bd89-636b6bb8b72f
   Frame=66   JointI=33   JointJ=40   IsCurved=No   GUID=7f4df9eb-948a-44bd-972f-36abbca65cef
   Frame=67   JointI=38   JointJ=33   IsCurved=No   GUID=853886ad-bb21-4ee9-97b4-11e66174f45a
   Frame=68   JointI=30   JointJ=38   IsCurved=No   GUID=4f33a522-0f13-42e6-9639-8554f0ab5b3a
   Frame=75   JointI=31   JointJ=5   IsCurved=No   GUID=163fc716-2988-4b74-93eb-59855d4ef4a8
   Frame=76   JointI=36   JointJ=10   IsCurved=No   GUID=458e3f05-fb40-4aea-ad17-1a704f801f1b
   Frame=77   JointI=37   JointJ=11   IsCurved=No   GUID=f1aaa9c6-8a5a-4090-981d-441df9c06d11
   Frame=78   JointI=32   JointJ=6   IsCurved=No   GUID=5be48842-a22b-4d08-ad5b-341474c5cbba
   Frame=79   JointI=39   JointJ=14   IsCurved=No   GUID=8b9a9837-8e1a-4bdd-acef-61a10b3b2270
   Frame=80   JointI=34   JointJ=8   IsCurved=No   GUID=b81b0713-a0bf-4b3a-90ef-0dd3068bd5f3
   Frame=81   JointI=41   JointJ=16   IsCurved=No   GUID=9e733821-c7c5-4af4-9e61-aaa8a97f6205
   Frame=82   JointI=11   JointJ=32   IsCurved=No   GUID=892be1bc-69b2-44aa-8c17-e08c9849ec81
   Frame=83   JointI=32   JointJ=14   IsCurved=No   GUID=82a6820f-7a86-4eba-b27d-45be974cdbdf
   Frame=84   JointI=14   JointJ=34   IsCurved=No   GUID=9607a328-af64-4e96-8839-b7ad1e3daf8b
   Frame=85   JointI=34   JointJ=16   IsCurved=No   GUID=e47f4f4a-68f5-4034-bf97-bfd5b8a89ec3
   Frame=86   JointI=41   JointJ=8   IsCurved=No   GUID=e5f2e11f-8e7c-4ab4-af8f-4f370f1b9152
   Frame=87   JointI=8   JointJ=39   IsCurved=No   GUID=4677a060-3dc2-4397-90dc-ffb8e90085af
   Frame=88   JointI=39   JointJ=6   IsCurved=No   GUID=e015c967-41b0-4948-b0ee-a1b0ac1f7e7a
   Frame=89   JointI=6   JointJ=37   IsCurved=No   GUID=95b5eaf0-0bc6-4975-b5a3-1e0d0f60ee0a
   Frame=90   JointI=30   JointJ=4   IsCurved=No   GUID=27ceef43-4c61-411c-9f91-3e934c9b5e0d
   Frame=91   JointI=38   JointJ=13   IsCurved=No   GUID=be1515b8-327e-4bec-8bb7-261c373e1e2a
   Frame=92   JointI=33   JointJ=7   IsCurved=No   GUID=1fd58edd-3b01-4975-abf2-d62074c34cfa
   Frame=93   JointI=40   JointJ=15   IsCurved=No   GUID=7b8097aa-56f5-4a64-997b-317c2ec37cd3
   Frame=94   JointI=35   JointJ=9   IsCurved=No   GUID=abb2dc84-cfc9-430c-94dc-ab68b7bc17e5
   Frame=95   JointI=4   JointJ=38   IsCurved=No   GUID=43e079fb-d0e9-4864-a8cd-42e3c92b24a7
   Frame=96   JointI=38   JointJ=7   IsCurved=No   GUID=f66f7301-92aa-482c-9b13-70850a424320
   Frame=97   JointI=7   JointJ=40   IsCurved=No   GUID=e0838dfb-1503-4abe-8499-257b783b9971
   Frame=98   JointI=40   JointJ=9   IsCurved=No   GUID=e7165201-c0ee-44b3-b3c5-57607aa29384
   Frame=99   JointI=35   JointJ=15   IsCurved=No   GUID=3e0a2fca-ca78-47d4-a753-ec90dde2034b
   Frame=100   JointI=15   JointJ=33   IsCurved=No   GUID=36a80761-8b83-4a8d-9f7c-cf6678b8ac41
   Frame=101   JointI=33   JointJ=13   IsCurved=No   GUID=0be03812-c302-4329-956e-bac2b1267319
   Frame=102   JointI=13   JointJ=30   IsCurved=No   GUID=a147ce2d-ff93-4ec6-be5d-7873154a34da
 
TABLE:  "COORDINATE SYSTEMS"
   Name=GLOBAL   Type=Cartesian   X=0   Y=0   Z=0   AboutZ=0   AboutY=0   AboutX=0
 
TABLE:  "DATABASE DOCUMENTATION"
 
TABLE:  "DATABASE FORMAT TYPES"
   UnitsCurr=Yes   OverrideE=No
 
TABLE:  "FRAME AUTO MESH ASSIGNMENTS"
   Frame=3   AutoMesh=Yes   AtJoints=Yes   AtFrames=Yes   NumSegments=0   MaxLength=0   MaxDegrees=0
   Frame=4   AutoMesh=Yes   AtJoints=Yes   AtFrames=Yes   NumSegments=0   MaxLength=0   MaxDegrees=0
   Frame=5   AutoMesh=Yes   AtJoints=Yes   AtFrames=Yes   NumSegments=0   MaxLength=0   MaxDegrees=0
   Frame=6   AutoMesh=Yes   AtJoints=Yes   AtFrames=Yes   NumSegments=0   MaxLength=0   MaxDegrees=0
   Frame=7   AutoMesh=Yes   AtJoints=Yes   AtFrames=Yes   NumSegments=0   MaxLength=0   MaxDegrees=0
   Frame=8   AutoMesh=Yes   AtJoints=Yes   AtFrames=Yes   NumSegments=0   MaxLength=0   MaxDegrees=0
   Frame=9   AutoMesh=Yes   AtJoints=Yes   AtFrames=Yes   NumSegments=0   MaxLength=0   MaxDegrees=0
   Frame=11   AutoMesh=Yes   AtJoints=Yes   AtFrames=Yes   NumSegments=0   MaxLength=0   MaxDegrees=0
   Frame=12   AutoMesh=Yes   AtJoints=Yes   AtFrames=Yes   NumSegments=0   MaxLength=0   MaxDegrees=0
   Frame=13   AutoMesh=Yes   AtJoints=Yes   AtFrames=Yes   NumSegments=0   MaxLength=0   MaxDegrees=0
   Frame=14   AutoMesh=Yes   AtJoints=Yes   AtFrames=Yes   NumSegments=0   MaxLength=0   MaxDegrees=0
   Frame=15   AutoMesh=Yes   AtJoints=Yes   AtFrames=Yes   NumSegments=0   MaxLength=0   MaxDegrees=0
   Frame=16   AutoMesh=Yes   AtJoints=Yes   AtFrames=Yes   NumSegments=0   MaxLength=0   MaxDegrees=0
   Frame=17   AutoMesh=Yes   AtJoints=Yes   AtFrames=Yes   NumSegments=0   MaxLength=0   MaxDegrees=0
   Frame=18   AutoMesh=Yes   AtJoints=Yes   AtFrames=Yes   NumSegments=0   MaxLength=0   MaxDegrees=0
   Frame=19   AutoMesh=Yes   AtJoints=Yes   AtFrames=Yes   NumSegments=0   MaxLength=0   MaxDegrees=0
   Frame=20   AutoMesh=Yes   AtJoints=Yes   AtFrames=Yes   NumSegments=0   MaxLength=0   MaxDegrees=0
   Frame=23   AutoMesh=Yes   AtJoints=Yes   AtFrames=Yes   NumSegments=0   MaxLength=0   MaxDegrees=0
   Frame=24   AutoMesh=Yes   AtJoints=Yes   AtFrames=Yes   NumSegments=0   MaxLength=0   MaxDegrees=0
   Frame=25   AutoMesh=Yes   AtJoints=Yes   AtFrames=Yes   NumSegments=0   MaxLength=0   MaxDegrees=0
# ... 50 like lines cut
 
TABLE:  "FRAME DESIGN PROCEDURES"
   Frame=3   DesignProc="From Material"
   Frame=4   DesignProc="From Material"
   Frame=5   DesignProc="From Material"
   Frame=6   DesignProc="From Material"
   Frame=7   DesignProc="From Material"
   Frame=8   DesignProc="From Material"
   Frame=9   DesignProc="From Material"
   Frame=11   DesignProc="From Material"
   Frame=12   DesignProc="From Material"
   Frame=13   DesignProc="From Material"
   Frame=14   DesignProc="From Material"
   Frame=15   DesignProc="From Material"
   Frame=16   DesignProc="From Material"
   Frame=17   DesignProc="From Material"
   Frame=18   DesignProc="From Material"
   Frame=19   DesignProc="From Material"
   Frame=20   DesignProc="From Material"
   Frame=23   DesignProc="From Material"
   Frame=24   DesignProc="From Material"
   Frame=25   DesignProc="From Material"
# ... 50 like lines cut
 
TABLE:  "FRAME LOAD TRANSFER OPTIONS"
   Frame=3   Transfer=Yes
   Frame=4   Transfer=Yes
   Frame=5   Transfer=Yes
   Frame=6   Transfer=Yes
   Frame=7   Transfer=Yes
   Frame=8   Transfer=Yes
   Frame=9   Transfer=Yes
   Frame=11   Transfer=Yes
   Frame=12   Transfer=Yes
   Frame=13   Transfer=Yes
   Frame=14   Transfer=Yes
   Frame=15   Transfer=Yes
   Frame=16   Transfer=Yes
   Frame=17   Transfer=Yes
   Frame=18   Transfer=Yes
   Frame=19   Transfer=Yes
   Frame=20   Transfer=Yes
   Frame=23   Transfer=Yes
   Frame=24   Transfer=Yes
   Frame=25   Transfer=Yes
# ... 50 like lines cut
 
TABLE:  "FRAME OUTPUT STATION ASSIGNMENTS"
   Frame=3   StationType=MinNumSta   MinNumSta=3   AddAtElmInt=Yes   AddAtPtLoad=Yes
   Frame=4   StationType=MinNumSta   MinNumSta=3   AddAtElmInt=Yes   AddAtPtLoad=Yes
   Frame=5   StationType=MinNumSta   MinNumSta=3   AddAtElmInt=Yes   AddAtPtLoad=Yes
   Frame=6   StationType=MinNumSta   MinNumSta=3   AddAtElmInt=Yes   AddAtPtLoad=Yes
   Frame=7   StationType=MinNumSta   MinNumSta=3   AddAtElmInt=Yes   AddAtPtLoad=Yes
   Frame=8   StationType=MinNumSta   MinNumSta=3   AddAtElmInt=Yes   AddAtPtLoad=Yes
   Frame=9   StationType=MinNumSta   MinNumSta=3   AddAtElmInt=Yes   AddAtPtLoad=Yes
   Frame=11   StationType=MaxStaSpcg   MaxStaSpcg=0.5   AddAtElmInt=Yes   AddAtPtLoad=Yes
   Frame=12   StationType=MaxStaSpcg   MaxStaSpcg=0.5   AddAtElmInt=Yes   AddAtPtLoad=Yes
   Frame=13   StationType=MinNumSta   MinNumSta=3   AddAtElmInt=Yes   AddAtPtLoad=Yes
   Frame=14   StationType=MaxStaSpcg   MaxStaSpcg=0.5   AddAtElmInt=Yes   AddAtPtLoad=Yes
   Frame=15   StationType=MinNumSta   MinNumSta=3   AddAtElmInt=Yes   AddAtPtLoad=Yes
   Frame=16   StationType=MaxStaSpcg   MaxStaSpcg=0.5   AddAtElmInt=Yes   AddAtPtLoad=Yes
   Frame=17   StationType=MinNumSta   MinNumSta=3   AddAtElmInt=Yes   AddAtPtLoad=Yes
   Frame=18   StationType=MaxStaSpcg   MaxStaSpcg=0.5   AddAtElmInt=Yes   AddAtPtLoad=Yes
   Frame=19   StationType=MinNumSta   MinNumSta=3   AddAtElmInt=Yes   AddAtPtLoad=Yes
   Frame=20   StationType=MaxStaSpcg   MaxStaSpcg=0.5   AddAtElmInt=Yes   AddAtPtLoad=Yes
   Frame=23   StationType=MaxStaSpcg   MaxStaSpcg=0.5   AddAtElmInt=Yes   AddAtPtLoad=Yes
   Frame=24   StationType=MaxStaSpcg   MaxStaSpcg=0.5   AddAtElmInt=Yes   AddAtPtLoad=Yes
   Frame=25   StationType=MaxStaSpcg   MaxStaSpcg=0.5   AddAtElmInt=Yes   AddAtPtLoad=Yes
   Frame=26   StationType=MaxStaSpcg   MaxStaSpcg=0.5   AddAtElmInt=Yes   AddAtPtLoad=Yes
   Frame=48   StationType=MinNumSta   MinNumSta=3   AddAtElmInt=Yes   AddAtPtLoad=Yes
   Frame=49   StationType=MinNumSta   MinNumSta=3   AddAtElmInt=Yes   AddAtPtLoad=Yes
   Frame=50   StationType=MinNumSta   MinNumSta=3   AddAtElmInt=Yes   AddAtPtLoad=Yes
   Frame=51   StationType=MinNumSta   MinNumSta=3   AddAtElmInt=Yes   AddAtPtLoad=Yes
   Frame=52   StationType=MinNumSta   MinNumSta=3   AddAtElmInt=Yes   AddAtPtLoad=Yes
   Frame=53   StationType=MinNumSta   MinNumSta=3   AddAtElmInt=Yes   AddAtPtLoad=Yes
   Frame=54   StationType=MinNumSta   MinNumSta=3   AddAtElmInt=Yes   AddAtPtLoad=Yes
   Frame=55   StationType=MaxStaSpcg   MaxStaSpcg=0.5   AddAtElmInt=Yes   AddAtPtLoad=Yes
   Frame=56   StationType=MaxStaSpcg   MaxStaSpcg=0.5   AddAtElmInt=Yes   AddAtPtLoad=Yes
   Frame=57   StationType=MinNumSta   MinNumSta=3   AddAtElmInt=Yes   AddAtPtLoad=Yes
   Frame=58   StationType=MaxStaSpcg   MaxStaSpcg=0.5   AddAtElmInt=Yes   AddAtPtLoad=Yes
   Frame=59   StationType=MinNumSta   MinNumSta=3   AddAtElmInt=Yes   AddAtPtLoad=Yes
   Frame=60   StationType=MaxStaSpcg   MaxStaSpcg=0.5   AddAtElmInt=Yes   AddAtPtLoad=Yes
   Frame=61   StationType=MinNumSta   MinNumSta=3   AddAtElmInt=Yes   AddAtPtLoad=Yes
   Frame=62   StationType=MaxStaSpcg   MaxStaSpcg=0.5   AddAtElmInt=Yes   AddAtPtLoad=Yes
   Frame=63   StationType=MinNumSta   MinNumSta=3   AddAtElmInt=Yes   AddAtPtLoad=Yes
   Frame=64   StationType=MaxStaSpcg   MaxStaSpcg=0.5   AddAtElmInt=Yes   AddAtPtLoad=Yes
   Frame=65   StationType=MaxStaSpcg   MaxStaSpcg=0.5   AddAtElmInt=Yes   AddAtPtLoad=Yes
   Frame=66   StationType=MaxStaSpcg   MaxStaSpcg=0.5   AddAtElmInt=Yes   AddAtPtLoad=Yes
   Frame=67   StationType=MaxStaSpcg   MaxStaSpcg=0.5   AddAtElmInt=Yes   AddAtPtLoad=Yes
   Frame=68   StationType=MaxStaSpcg   MaxStaSpcg=0.5   AddAtElmInt=Yes   AddAtPtLoad=Yes
   Frame=75   StationType=MaxStaSpcg   MaxStaSpcg=0.5   AddAtElmInt=Yes   AddAtPtLoad=Yes
   Frame=76   StationType=MaxStaSpcg   MaxStaSpcg=0.5   AddAtElmInt=Yes   AddAtPtLoad=Yes
   Frame=77   StationType=MaxStaSpcg   MaxStaSpcg=0.5   AddAtElmInt=Yes   AddAtPtLoad=Yes
   Frame=78   StationType=MaxStaSpcg   MaxStaSpcg=0.5   AddAtElmInt=Yes   AddAtPtLoad=Yes
   Frame=79   StationType=MaxStaSpcg   MaxStaSpcg=0.5   AddAtElmInt=Yes   AddAtPtLoad=Yes
   Frame=80   StationType=MaxStaSpcg   MaxStaSpcg=0.5   AddAtElmInt=Yes   AddAtPtLoad=Yes
   Frame=81   StationType=MaxStaSpcg   MaxStaSpcg=0.5   AddAtElmInt=Yes   AddAtPtLoad=Yes
   Frame=82   StationType=MaxStaSpcg   MaxStaSpcg=0.5   AddAtElmInt=Yes   AddAtPtLoad=Yes
   Frame=83   StationType=MaxStaSpcg   MaxStaSpcg=0.5   AddAtElmInt=Yes   AddAtPtLoad=Yes
   Frame=84   StationType=MaxStaSpcg   MaxStaSpcg=0.5   AddAtElmInt=Yes   AddAtPtLoad=Yes
   Frame=85   StationType=MaxStaSpcg   MaxStaSpcg=0.5   AddAtElmInt=Yes   AddAtPtLoad=Yes
   Frame=86   StationType=MaxStaSpcg   MaxStaSpcg=0.5   AddAtElmInt=Yes   AddAtPtLoad=Yes
   Frame=87   StationType=MaxStaSpcg   MaxStaSpcg=0.5   AddAtElmInt=Yes   AddAtPtLoad=Yes
   Frame=88   StationType=MaxStaSpcg   MaxStaSpcg=0.5   AddAtElmInt=Yes   AddAtPtLoad=Yes
   Frame=89   StationType=MaxStaSpcg   MaxStaSpcg=0.5   AddAtElmInt=Yes   AddAtPtLoad=Yes
# ... 13 like lines cut
 
TABLE:  "FRAME RELEASE ASSIGNMENTS 1 - GENERAL"
   Frame=3   PI=No   V2I=No   V3I=No   TI=No   M2I=No   M3I=Yes   PJ=No   V2J=No   V3J=No   TJ=No   M2J=No   M3J=Yes
   Frame=4   PI=No   V2I=No   V3I=No   TI=No   M2I=No   M3I=Yes   PJ=No   V2J=No   V3J=No   TJ=No   M2J=No   M3J=Yes
   Frame=5   PI=No   V2I=No   V3I=No   TI=No   M2I=No   M3I=Yes   PJ=No   V2J=No   V3J=No   TJ=No   M2J=No   M3J=Yes
   Frame=6   PI=No   V2I=No   V3I=No   TI=No   M2I=No   M3I=Yes   PJ=No   V2J=No   V3J=No   TJ=No   M2J=No   M3J=Yes
   Frame=7   PI=No   V2I=No   V3I=No   TI=No   M2I=No   M3I=Yes   PJ=No   V2J=No   V3J=No   TJ=No   M2J=No   M3J=Yes
   Frame=8   PI=No   V2I=No   V3I=No   TI=No   M2I=No   M3I=Yes   PJ=No   V2J=No   V3J=No   TJ=No   M2J=No   M3J=Yes
   Frame=9   PI=No   V2I=No   V3I=No   TI=No   M2I=No   M3I=Yes   PJ=No   V2J=No   V3J=No   TJ=No   M2J=No   M3J=Yes
   Frame=11   PI=No   V2I=No   V3I=No   TI=No   M2I=No   M3I=Yes   PJ=No   V2J=No   V3J=No   TJ=No   M2J=No   M3J=Yes
   Frame=12   PI=No   V2I=No   V3I=No   TI=No   M2I=No   M3I=Yes   PJ=No   V2J=No   V3J=No   TJ=No   M2J=No   M3J=Yes
   Frame=13   PI=No   V2I=No   V3I=No   TI=No   M2I=No   M3I=Yes   PJ=No   V2J=No   V3J=No   TJ=No   M2J=No   M3J=Yes
   Frame=14   PI=No   V2I=No   V3I=No   TI=No   M2I=No   M3I=Yes   PJ=No   V2J=No   V3J=No   TJ=No   M2J=No   M3J=Yes
   Frame=15   PI=No   V2I=No   V3I=No   TI=No   M2I=No   M3I=Yes   PJ=No   V2J=No   V3J=No   TJ=No   M2J=No   M3J=Yes
   Frame=16   PI=No   V2I=No   V3I=No   TI=No   M2I=No   M3I=Yes   PJ=No   V2J=No   V3J=No   TJ=No   M2J=No   M3J=Yes
   Frame=17   PI=No   V2I=No   V3I=No   TI=No   M2I=No   M3I=Yes   PJ=No   V2J=No   V3J=No   TJ=No   M2J=No   M3J=Yes
   Frame=18   PI=No   V2I=No   V3I=No   TI=No   M2I=No   M3I=Yes   PJ=No   V2J=No   V3J=No   TJ=No   M2J=No   M3J=Yes
   Frame=19   PI=No   V2I=No   V3I=No   TI=No   M2I=No   M3I=Yes   PJ=No   V2J=No   V3J=No   TJ=No   M2J=No   M3J=Yes
   Frame=20   PI=No   V2I=No   V3I=No   TI=No   M2I=No   M3I=Yes   PJ=No   V2J=No   V3J=No   TJ=No   M2J=No   M3J=Yes
   Frame=23   PI=No   V2I=No   V3I=No   TI=No   M2I=No   M3I=Yes   PJ=No   V2J=No   V3J=No   TJ=No   M2J=No   M3J=Yes
   Frame=24   PI=No   V2I=No   V3I=No   TI=No   M2I=No   M3I=Yes   PJ=No   V2J=No   V3J=No   TJ=No   M2J=No   M3J=Yes
   Frame=25   PI=No   V2I=No   V3I=No   TI=No   M2I=No   M3I=Yes   PJ=No   V2J=No   V3J=No   TJ=No   M2J=No   M3J=Yes
# ... 50 like lines cut
 
TABLE:  "FRAME SECTION ASSIGNMENTS"
   Frame=3   AutoSelect=N.A.   AnalSect=HSS8X3X3/8   MatProp=Default
   Frame=4   AutoSelect=N.A.   AnalSect=HSS8X3X3/8   MatProp=Default
   Frame=5   AutoSelect=N.A.   AnalSect=HSS8X3X3/8   MatProp=Default
   Frame=6   AutoSelect=N.A.   AnalSect=HSS8X3X3/8   MatProp=Default
   Frame=7   AutoSelect=N.A.   AnalSect=HSS8X3X3/8   MatProp=Default
   Frame=8   AutoSelect=N.A.   AnalSect=HSS8X3X3/8   MatProp=Default
   Frame=9   AutoSelect=N.A.   AnalSect=HSS8X3X3/8   MatProp=Default
   Frame=11   AutoSelect=N.A.   AnalSect=HSS8X3X3/8   MatProp=Default
   Frame=12   AutoSelect=N.A.   AnalSect=HSS8X3X3/8   MatProp=Default
   Frame=13   AutoSelect=N.A.   AnalSect=HSS8X3X3/8   MatProp=Default
   Frame=14   AutoSelect=N.A.   AnalSect=HSS8X3X3/8   MatProp=Default
   Frame=15   AutoSelect=N.A.   AnalSect=HSS8X3X3/8   MatProp=Default
   Frame=16   AutoSelect=N.A.   AnalSect=HSS8X3X3/8   MatProp=Default
   Frame=17   AutoSelect=N.A.   AnalSect=HSS8X3X3/8   MatProp=Default
   Frame=18   AutoSelect=N.A.   AnalSect=HSS8X3X3/8   MatProp=Default
   Frame=19   AutoSelect=N.A.   AnalSect=HSS8X3X3/8   MatProp=Default
   Frame=20   AutoSelect=N.A.   AnalSect=HSS8X3X3/8   MatProp=Default
   Frame=23   AutoSelect=N.A.   AnalSect=HSS8X3X3/8   MatProp=Default
   Frame=24   AutoSelect=N.A.   AnalSect=HSS8X3X3/8   MatProp=Default
   Frame=25   AutoSelect=N.A.   AnalSect=HSS8X3X3/8   MatProp=Default
# ... 50 like lines cut
 
TABLE:  "FRAME SECTION PROPERTIES 01 - GENERAL"
   SectionName=HSS8X3X3/8   Material=A36   Shape=Box/Tube   t3=0.2032   t2=0.0762   tf=0.00886460017561913   tw=0.00886460017561913   Area=0.0044387008738327   TorsConst=1.18625956296E-05   I33=2.01872241416E-05   I22=4.162314256E-06 _
        I23=0   AS2=0.00360257351137161   AS3=0.00135096510521889   S33=0.000198693151   S22=0.000109247093333333   Z33=0.000263831736651169   Z22=0.000129130066195351   R33=0.0674388821921444   R22=0.0306224189531367   Color=Magenta _
        FromFile=Yes   AMod=1   A2Mod=1   A3Mod=1   JMod=1   I2Mod=1   I3Mod=1   MMod=1   WMod=1   SectInFile=HSS8X3X3/8   FileName="c:\program files\computers and structures\sap2000 20\sections8.pro"   Notes="Imported 1/1/2019 11:30:45 AM from SECTIONS8.PRO"
 
TABLE:  "FRAME SECTION PROPERTIES 13 - TIME DEPENDENT"
   SectionName=HSS8X3X3/8   TypeSize=Auto   AutoSFSize=0
 
TABLE:  "FUNCTION - PLOT FUNCTIONS"
   PlotFunc="Input Energy"   Type=Energy   Component=Input   Mode=All
 
TABLE:  "FUNCTION - POWER SPECTRAL DENSITY - USER"
   Name=UNIFPSD   Frequency=0   Value=1
   Name=UNIFPSD   Frequency=1   Value=1
 
TABLE:  "FUNCTION - RESPONSE SPECTRUM - USER"
   Name=UNIFRS   Period=0   Accel=1   FuncDamp=0.05
   Name=UNIFRS   Period=1   Accel=1
 
TABLE:  "FUNCTION - STEADY STATE - USER"
   Name=UNIFSS   Frequency=0   Value=1
   Name=UNIFSS   Frequency=1   Value=1
 
TABLE:  "FUNCTION - TIME HISTORY - USER"
   Name=RAMPTH   Time=0   Value=0
   Name=RAMPTH   Time=1   Value=1
   Name=RAMPTH   Time=4   Value=1
   Name=UNIFTH   Time=0   Value=1
   Name=UNIFTH   Time=1   Value=1
 
TABLE:  "GRID LINES"
   CoordSys=GLOBAL   AxisDir=X   GridID=A   XRYZCoord=0   LineType=Primary   LineColor=Gray8Dark   Visible=Yes   BubbleLoc=End   AllVisible=Yes   BubbleSize=1.75
   CoordSys=GLOBAL   AxisDir=X   GridID=B   XRYZCoord=5   LineType=Primary   LineColor=Gray8Dark   Visible=Yes   BubbleLoc=End
   CoordSys=GLOBAL   AxisDir=X   GridID=C   XRYZCoord=8   LineType=Primary   LineColor=Gray8Dark   Visible=Yes   BubbleLoc=End
   CoordSys=GLOBAL   AxisDir=X   GridID=D   XRYZCoord=11   LineType=Primary   LineColor=Gray8Dark   Visible=Yes   BubbleLoc=End
   CoordSys=GLOBAL   AxisDir=X   GridID=E   XRYZCoord=14   LineType=Primary   LineColor=Gray8Dark   Visible=Yes   BubbleLoc=End
   CoordSys=GLOBAL   AxisDir=X   GridID=F   XRYZCoord=17   LineType=Primary   LineColor=Gray8Dark   Visible=Yes   BubbleLoc=End
   CoordSys=GLOBAL   AxisDir=X   GridID=G   XRYZCoord=22   LineType=Primary   LineColor=Gray8Dark   Visible=Yes   BubbleLoc=End
   CoordSys=GLOBAL   AxisDir=Y   GridID=1   XRYZCoord=0   LineType=Primary   LineColor=Gray8Dark   Visible=Yes   BubbleLoc=Start
   CoordSys=GLOBAL   AxisDir=Y   GridID=2   XRYZCoord=12   LineType=Primary   LineColor=Gray8Dark   Visible=Yes   BubbleLoc=Start
   CoordSys=GLOBAL   AxisDir=Z   GridID=Z1   XRYZCoord=0   LineType=Primary   LineColor=Gray8Dark   Visible=Yes   BubbleLoc=End
   CoordSys=GLOBAL   AxisDir=Z   GridID=Z2   XRYZCoord=6   LineType=Primary   LineColor=Gray8Dark   Visible=Yes   BubbleLoc=End
 
TABLE:  "GROUPS 1 - DEFINITIONS"
   GroupName=ALL   Selection=Yes   SectionCut=Yes   Steel=Yes   Concrete=Yes   Aluminum=Yes   ColdFormed=Yes   Stage=Yes   Bridge=Yes   AutoSeismic=No   AutoWind=No   SelDesSteel=No   SelDesAlum=No   SelDesCold=No   MassWeight=Yes   Color=Red
 
TABLE:  "JOINT COORDINATES"
   Joint=4   CoordSys=GLOBAL   CoordType=Cartesian   XorR=5   Y=12   Z=6   SpecialJt=No   GUID=01540076-6050-4223-a716-ec041b4885ea
   Joint=5   CoordSys=GLOBAL   CoordType=Cartesian   XorR=0   Y=12   Z=0   SpecialJt=No   GUID=c570c8d2-6e2f-4f15-99e2-e7a8f9f0f883
   Joint=6   CoordSys=GLOBAL   CoordType=Cartesian   XorR=8   Y=12   Z=0   SpecialJt=No   GUID=6ebd4556-eb78-41e8-877a-c8875e5cd5e4
   Joint=7   CoordSys=GLOBAL   CoordType=Cartesian   XorR=11   Y=12   Z=6   SpecialJt=No   GUID=3541ca21-387b-4521-b382-8f360f7cd480
   Joint=8   CoordSys=GLOBAL   CoordType=Cartesian   XorR=14   Y=12   Z=0   SpecialJt=No   GUID=824efe8d-d3ca-4fed-b2f6-7b7b919bcdd1
   Joint=9   CoordSys=GLOBAL   CoordType=Cartesian   XorR=17   Y=12   Z=6   SpecialJt=No   GUID=f9f4070f-9dc0-4a74-b3c7-7076d04a3764
   Joint=10   CoordSys=GLOBAL   CoordType=Cartesian   XorR=22   Y=12   Z=0   SpecialJt=No   GUID=957c2d9c-e2a6-43fe-b076-13ced80865c1
   Joint=11   CoordSys=GLOBAL   CoordType=Cartesian   XorR=5   Y=12   Z=0   SpecialJt=No   GUID=47bebdab-69b0-403d-a54b-635f66197161
   Joint=13   CoordSys=GLOBAL   CoordType=Cartesian   XorR=8   Y=12   Z=6   SpecialJt=No   GUID=9e271fe2-4c9b-4f0a-9cc7-c2119282c6a5
   Joint=14   CoordSys=GLOBAL   CoordType=Cartesian   XorR=11   Y=12   Z=0   SpecialJt=No   GUID=edc56e60-4152-4ce3-8cab-8ef2bb72c2d7
   Joint=15   CoordSys=GLOBAL   CoordType=Cartesian   XorR=14   Y=12   Z=6   SpecialJt=No   GUID=9177f060-0d5d-44c3-b859-4df53f983226
   Joint=16   CoordSys=GLOBAL   CoordType=Cartesian   XorR=17   Y=12   Z=0   SpecialJt=No   GUID=a3bb7561-c233-4c47-bcf8-06aeb240778f
   Joint=30   CoordSys=GLOBAL   CoordType=Cartesian   XorR=5   Y=0   Z=6   SpecialJt=No   GUID=219cdb82-48a2-45d4-bc76-a22e005ab1d7
   Joint=31   CoordSys=GLOBAL   CoordType=Cartesian   XorR=0   Y=0   Z=0   SpecialJt=No   GUID=2e5dfb93-38e4-488a-a281-622ad546704f
   Joint=32   CoordSys=GLOBAL   CoordType=Cartesian   XorR=8   Y=0   Z=0   SpecialJt=No   GUID=a4ba4aa6-b8ba-477c-b31e-48c8cb9c6416
   Joint=33   CoordSys=GLOBAL   CoordType=Cartesian   XorR=11   Y=0   Z=6   SpecialJt=No   GUID=b8f17931-c8c7-4ef6-97c3-16df985729a4
   Joint=34   CoordSys=GLOBAL   CoordType=Cartesian   XorR=14   Y=0   Z=0   SpecialJt=No   GUID=21e271ea-e7b3-4803-869a-3bb98e3884af
   Joint=35   CoordSys=GLOBAL   CoordType=Cartesian   XorR=17   Y=0   Z=6   SpecialJt=No   GUID=b81c3386-26d7-4481-aa80-70b2a623556d
   Joint=36   CoordSys=GLOBAL   CoordType=Cartesian   XorR=22   Y=0   Z=0   SpecialJt=No   GUID=831e1a6a-9917-41ff-8c25-9257a2080025
   Joint=37   CoordSys=GLOBAL   CoordType=Cartesian   XorR=5   Y=0   Z=0   SpecialJt=No   GUID=48021890-f621-444a-b6d5-d7ad8a2f4a0d
   Joint=38   CoordSys=GLOBAL   CoordType=Cartesian   XorR=8   Y=0   Z=6   SpecialJt=No   GUID=25ab488c-0352-4e78-9c32-f6f91962bd7e
   Joint=39   CoordSys=GLOBAL   CoordType=Cartesian   XorR=11   Y=0   Z=0   SpecialJt=No   GUID=8e094159-065b-48e4-966b-57e1d9b683e3
   Joint=40   CoordSys=GLOBAL   CoordType=Cartesian   XorR=14   Y=0   Z=6   SpecialJt=No   GUID=f3a189e3-b6e1-4314-8d0d-3ec12620bf1f
   Joint=41   CoordSys=GLOBAL   CoordType=Cartesian   XorR=17   Y=0   Z=0   SpecialJt=No   GUID=add8f013-2749-43fe-9c19-23d9d40c1429
 
TABLE:  "JOINT PATTERN DEFINITIONS"
   Pattern=Default
 
TABLE:  "JOINT RESTRAINT ASSIGNMENTS"
   Joint=5   U1=Yes   U2=Yes   U3=Yes   R1=No   R2=No   R3=No
   Joint=10   U1=Yes   U2=Yes   U3=Yes   R1=No   R2=No   R3=No
   Joint=31   U1=Yes   U2=Yes   U3=Yes   R1=No   R2=No   R3=No
   Joint=36   U1=Yes   U2=Yes   U3=Yes   R1=No   R2=No   R3=No
 
TABLE:  "LOAD CASE DEFINITIONS"
   Case=DEAD   Type=LinStatic   InitialCond=Zero   DesTypeOpt="Prog Det"   DesignType=Dead   DesActOpt="Prog Det"   DesignAct=Non-Composite   AutoType=None   RunCase=Yes   GUID=477f4326-8bad-46de-9202-bfbaab1f1775
   Case=MODAL   Type=LinModal   InitialCond=Zero   DesTypeOpt="Prog Det"   DesignType=Other   DesActOpt="Prog Det"   DesignAct=Other   AutoType=None   RunCase=Yes   GUID=a9906a50-73be-49d3-8e09-98557928dc21
 
TABLE:  "LOAD PATTERN DEFINITIONS"
   LoadPat=DEAD   DesignType=Dead   SelfWtMult=1   GUID=3cee21cf-9634-40ad-bee1-fd9a2148098a
 
TABLE:  "MASS SOURCE"
   MassSource=MSSSRC1   Elements=Yes   Masses=Yes   Loads=No   IsDefault=Yes
 
TABLE:  "MATERIAL PROPERTIES 01 - GENERAL"
   Material=4000Psi   Type=Concrete   Grade="f'c 4000 psi"   SymType=Isotropic   TempDepend=No   Color=Red   Notes="Customary f'c 4000 psi 1/1/2019 10:36:15 AM"
   Material=A36   Type=Steel   Grade="Grade 36"   SymType=Isotropic   TempDepend=No   Color=Red   Notes="United States ASTM A36 Grade 36 added 1/1/2019 11:29:46 AM"
   Material=A992Fy50   Type=Steel   Grade="Grade 50"   SymType=Isotropic   TempDepend=No   Color=Cyan   Notes="ASTM A992 Grade 50 1/1/2019 10:36:15 AM"
 
TABLE:  "MATERIAL PROPERTIES 02 - BASIC MECHANICAL PROPERTIES"
   Material=4000Psi   UnitWeight=23563.1216161855   UnitMass=2402.76960558926   E1=24855578060.0518   G12=10356490858.3549   U12=0.2   A1=9.89999952793124E-06
   Material=A36   UnitWeight=76972.8639422648   UnitMass=7849.04737995992   E1=199947978795.958   G12=76903068767.6761   U12=0.3   A1=1.16999994421006E-05
   Material=A992Fy50   UnitWeight=76972.8639422648   UnitMass=7849.04737995992   E1=199947978795.958   G12=76903068767.676   U12=0.3   A1=1.16999994421006E-05
 
TABLE:  "MATERIAL PROPERTIES 03A - STEEL DATA"
   Material=A36   Fy=248211284.022568   Fu=399895957.591915   EffFy=372316926.033852   EffFu=439885553.351107   SSCurveOpt=Simple   SSHysType=Kinematic   SHard=0.02   SMax=0.14   SRup=0.2   FinalSlope=-0.1
   Material=A992Fy50   Fy=344737894.475789   Fu=448159262.818526   EffFy=379211683.923368   EffFu=492975189.100378   SSCurveOpt=Simple   SSHysType=Kinematic   SHard=0.015   SMax=0.11   SRup=0.17   FinalSlope=-0.1
 
TABLE:  "MATERIAL PROPERTIES 03B - CONCRETE DATA"
   Material=4000Psi   Fc=27579031.5580631   eFc=27579031.5580631   LtWtConc=No   SSCurveOpt=Mander   SSHysType=Takeda   SFc=0.00221914   SCap=0.005   FinalSlope=-0.1   FAngle=0   DAngle=0
 
TABLE:  "MATERIAL PROPERTIES 06 - DAMPING PARAMETERS"
   Material=4000Psi   ModalRatio=0   VisMass=0   VisStiff=0   HysMass=0   HysStiff=0
   Material=A36   ModalRatio=0   VisMass=0   VisStiff=0   HysMass=0   HysStiff=0
   Material=A992Fy50   ModalRatio=0   VisMass=0   VisStiff=0   HysMass=0   HysStiff=0
 
TABLE:  "OPTIONS - COLORS - DISPLAY"
   DeviceType=Screen   Points=Blue   LinesFrame=Blue   LinesFrmDL=Blue   LinesCable=Green   LinesTendon=Green   SpringLinks=Green   Restraints=Green   Releases=Green   Axes=Cyan   Text=Black   ShadowLines=Gray8Dark   GuideLines=Gray8Dark _
        Highlight=Red   Selection=10504778   AreaFillBot=Red   AreaFillTop=16744703   AreaFillSd=Red   AreaEdge=DarkRed   SolidF1=Red   SolidF2=Blue   SolidF3=Green   SolidF4=Yellow   SolidF5=White   SolidF6=Cyan   SolidEdge=DarkRed _
        Floor=Gray4   Background=White   BGLowLeft=White   BGLowRight=White   BGUpRight=White   Darkness=0.5
   DeviceType=Printer   Points=Gray8Dark   LinesFrame=Black   LinesFrmDL=Gray4   LinesCable=Black   LinesTendon=Black   SpringLinks=Gray8Dark   Restraints=Gray8Dark   Releases=Gray4   Axes=Black   Text=Black   ShadowLines=Gray4 _
        GuideLines=Gray4   Highlight=Black   Selection=Black   AreaFillBot=Gray4   AreaFillTop=Gray8Dark   AreaFillSd=Gray4   AreaEdge=Black   SolidF1=Gray1Light   SolidF2=Gray2   SolidF3=Gray3   SolidF4=Gray4   SolidF5=Gray5 _
        SolidF6=Gray6   SolidEdge=Black   Floor=Gray4   Background=White   BGLowLeft=White   BGLowRight=White   BGUpRight=White   Darkness=0.5
   DeviceType="Color Printer"   Points=Blue   LinesFrame=Blue   LinesFrmDL=Blue   LinesCable=Green   LinesTendon=Green   SpringLinks=Green   Restraints=Green   Releases=Green   Axes=Cyan   Text=Black   ShadowLines=Gray8Dark _
        GuideLines=Gray8Dark   Highlight=Red   Selection=10504778   AreaFillBot=Red   AreaFillTop=16744703   AreaFillSd=Red   AreaEdge=DarkRed   SolidF1=Red   SolidF2=Blue   SolidF3=Green   SolidF4=Yellow   SolidF5=White   SolidF6=Cyan _
        SolidEdge=DarkRed   Floor=Gray4   Background=White   BGLowLeft=White   BGLowRight=White   BGUpRight=White   Darkness=0.5
 
TABLE:  "OPTIONS - COLORS - OUTPUT"
   DeviceType=Screen   Contour1=13107400   Contour2=6553828   Contour3=Red   Contour4=16639   Contour5=Orange   Contour6=43775   Contour7=54527   Contour8=Yellow   Contour9=65408   Contour10=Green   Contour11=8453888   Contour12=Cyan _
        Contour13=16755200   Contour14=16733440   Contour15=Blue   Transpare=0.5   Ratio1=Cyan   Ratio2=Green   Ratio3=Yellow   Ratio4=Orange   Ratio5=Red   RatioNotD=Gray4   RatioNotC=Red   RatioVal1=0.5   RatioVal2=0.7   RatioVal3=0.9 _
        RatioVal4=1   DFillPos=Blue   DFillNeg=Red   DFillRPos=Green   DFillRNeg=Green
   DeviceType=Printer   Contour1=Black   Contour2=3158064   Contour3=4210752   Contour4=5263440   Contour5=6316128   Contour6=7368816   Contour7=Gray8Dark   Contour8=Gray7   Contour9=Gray6   Contour10=Gray5   Contour11=Gray4 _
        Contour12=Gray3   Contour13=Gray2   Contour14=Gray1Light   Contour15=White   Transpare=0   Ratio1=Gray2   Ratio2=Gray4   Ratio3=Gray8Dark   Ratio4=4210752   Ratio5=Black   RatioNotD=Gray4   RatioNotC=Black   RatioVal1=0.5 _
        RatioVal2=0.7   RatioVal3=0.9   RatioVal4=1   DFillPos=Gray8Dark   DFillNeg=Gray8Dark   DFillRPos=4210752   DFillRNeg=4210752
   DeviceType="Color Printer"   Contour1=13107400   Contour2=6553828   Contour3=Red   Contour4=16639   Contour5=Orange   Contour6=43775   Contour7=54527   Contour8=Yellow   Contour9=65408   Contour10=Green   Contour11=8453888 _
        Contour12=Cyan   Contour13=16755200   Contour14=16733440   Contour15=Blue   Transpare=0   Ratio1=Cyan   Ratio2=Green   Ratio3=Yellow   Ratio4=Orange   Ratio5=Red   RatioNotD=Gray4   RatioNotC=Red   RatioVal1=0.5   RatioVal2=0.7 _
        RatioVal3=0.9   RatioVal4=1   DFillPos=Blue   DFillNeg=Red   DFillRPos=Green   DFillRNeg=Green
 
TABLE:  "PREFERENCES - ALUMINUM DESIGN - AA-ASD 2000"
   THDesign=Envelopes   FrameType="Moment Frame"   SRatioLimit=1   MaxIter=1   LatFact=1.33333333333333   UseLatFact=No   Bridge=No
 
TABLE:  "PREFERENCES - COLD FORMED DESIGN - AISI-ASD96"
   THDesign=Envelopes   FrameType="Braced Frame"   SRatioLimit=1   MaxIter=1   OmegaBS=1.67   OmegaBUS=1.67   OmegaBLTB=1.67   OmegaVS=1.67   OmegaVNS=1.5   OmegaT=1.67   OmegaC=1.8
 
TABLE:  "PREFERENCES - CONCRETE DESIGN - ACI 318-14"
   THDesign=Envelopes   NumCurves=24   NumPoints=11   MinEccen=Yes   PatLLF=0.75   UFLimit=0.95   SeisCat=D   Rho=1   Sds=0.5   PhiT=0.9   PhiCTied=0.65   PhiCSpiral=0.75   PhiV=0.75   PhiVSeismic=0.6   PhiVJoint=0.85
 
TABLE:  "PREFERENCES - DIMENSIONAL"
   MergeTol=0.001   FineGrid=0.25   Nudge=0.25   SelectTol=3   SnapTol=12   SLineThick=2   PLineThick=4   MaxFont=8   MinFont=3   AutoZoom=10   ShrinkFact=70   TextFileLen=240
 
TABLE:  "PREFERENCES - STEEL DESIGN - AISC 360-10"
   THDesign=Envelopes   FrameType=SMF   PatLLF=0.75   SRatioLimit=0.95   MaxIter=1   SDC=D   SeisCode=Yes   SeisLoad=Yes   ImpFactor=1   SystemRho=1   SystemSds=0.5   SystemR=8   SystemCd=5.5   Omega0=3   Provision=LRFD _
        AMethod="Direct Analysis"   SOMethod="General 2nd Order"   SRMethod="Tau-b Fixed"   NLCoeff=0.002   PhiB=0.9   PhiC=0.9   PhiTY=0.9   PhiTF=0.75   PhiV=0.9   PhiVRolledI=1   PhiVT=0.9   PlugWeld=Yes   HSSWelding=ERW   HSSReduceT=No _
        CheckDefl=No   DLRat=120   SDLAndLLRat=120   LLRat=360   TotalRat=240   NetRat=240
 
TABLE:  "PROGRAM CONTROL"
   ProgramName=SAP2000   Version=20.2.0   CurrUnits="N, m, C"   SteelCode="AISC 360-10"   ConcCode="ACI 318-14"   AlumCode="AA-ASD 2000"   ColdCode=AISI-ASD96   RegenHinge=Yes
 
TABLE:  "PROJECT INFORMATION"
   Item="Company Name"
   Item="Client Name"
   Item="Project Name"
   Item="Project Number"
   Item="Model Name"
   Item="Model Description"
   Item="Revision Number"
   Item="Frame Type"
   Item=Engineer
   Item=Checker
   Item=Supervisor
   Item="Issue Code"
   Item="Design Code"
 
TABLE:  "REBAR SIZES"
   RebarID=#2   Area=3.2258E-05   Diameter=0.00635
   RebarID=#3   Area=7.09675996154547E-05   Diameter=0.009525
   RebarID=#4   Area=0.000129032001922727   Diameter=0.0127
   RebarID=#5   Area=0.000199999601538181   Diameter=0.015875
   RebarID=#6   Area=0.000283870398461819   Diameter=0.01905
   RebarID=#7   Area=0.000387096015381813   Diameter=0.022225
   RebarID=#8   Area=0.000509676413843632   Diameter=0.0254
   RebarID=#9   Area=0.00064516   Diameter=0.0286512005329132
   RebarID=#10   Area=0.00081935318769455   Diameter=0.0322579995155334
   RebarID=#11   Area=0.00100644956308365   Diameter=0.0358139991521835
   RebarID=#14   Area=0.00145161   Diameter=0.0430021989583969
   RebarID=#18   Area=0.00258064   Diameter=0.0573277992248535
   RebarID=10M   Area=0.000100000002655387   Diameter=0.011300000667572
   RebarID=15M   Area=0.000200000005310774   Diameter=0.0159999999403954
   RebarID=20M   Area=0.000300000017579794   Diameter=0.0194999997854233
   RebarID=25M   Area=0.000500000022890568   Diameter=0.0252000016093254
   RebarID=30M   Area=0.000700000008974075   Diameter=0.0299000008821487
   RebarID=35M   Area=0.00100000004578114   Diameter=0.0357000011444092
   RebarID=45M   Area=0.00150000010712624   Diameter=0.0437000003576279
   RebarID=55M   Area=0.00250000007599831   Diameter=0.0564000033855438
   RebarID=6d   Area=2.83000004149973E-05   Diameter=0.006000000166893
   RebarID=8d   Area=5.02999995571375E-05   Diameter=0.00799999997019768
   RebarID=10d   Area=7.85000013634562E-05   Diameter=0.00999999977350235
   RebarID=12d   Area=0.000113000009249449   Diameter=0.012000000333786
   RebarID=14d   Area=0.000154000010818839   Diameter=0.0140000008940697
   RebarID=16d   Area=0.000201000015431643   Diameter=0.0159999999403954
   RebarID=20d   Area=0.000314000005453825   Diameter=0.0199999995470047
   RebarID=25d   Area=0.000491000008711815   Diameter=0.0250000001907349
   RebarID=26d   Area=0.000531000029001236   Diameter=0.0259999997138977
   RebarID=28d   Area=0.000616000043275356   Diameter=0.0280000017881393
   RebarID=N12   Area=0.000113000009249449   Diameter=0.012000000333786
   RebarID=N16   Area=0.000201000015431643   Diameter=0.0159999999403954
   RebarID=N20   Area=0.000314000005453825   Diameter=0.0199999995470047
   RebarID=N24   Area=0.000452000036997795   Diameter=0.024000000667572
   RebarID=N28   Area=0.000616000043275356   Diameter=0.0280000017881393
   RebarID=N32   Area=0.00080400006172657   Diameter=0.0319999998807907
   RebarID=N36   Area=0.00102000001747131   Diameter=0.036000001001358
 
END TABLE DATA
