File E:\SEM 2\SUMMER PROJECTS\DesCon\Assignments\A2 Q.1.$2k was saved on m/d/yy at h:mm:ss
 
TABLE:  "ACTIVE DEGREES OF FREEDOM"
   UX=Yes   UY=Yes   UZ=Yes   RX=Yes   RY=Yes   RZ=Yes
 
TABLE:  "ANALYSIS OPTIONS"
   Solver=Advanced   SolverProc=Auto   Force32Bit=No   StiffCase=None   GeomMod=None   HingeOpt="In Elements"
 
TABLE:  "AREA AUTO MESH ASSIGNMENTS"
   Area=2   MeshType="Points On Edges"   MeshGroup=ALL   PtsFromLine=Yes   PtsFromPt=Yes   LocalEdge=No   LocalFace=No   SuppEdge=No   SuppFace=No   SubMesh=No
   Area=6   MeshType="Points On Edges"   MeshGroup=ALL   PtsFromLine=Yes   PtsFromPt=Yes   LocalEdge=No   LocalFace=No   SuppEdge=No   SuppFace=No   SubMesh=No
   Area=7   MeshType="Points On Edges"   MeshGroup=ALL   PtsFromLine=Yes   PtsFromPt=Yes   LocalEdge=No   LocalFace=No   SuppEdge=No   SuppFace=No   SubMesh=No
 
TABLE:  "AREA SECTION ASSIGNMENTS"
   Area=2   Section=BASE   MatProp=Default
   Area=6   Section=BASE   MatProp=Default
   Area=7   Section=BASE   MatProp=Default
 
TABLE:  "AREA SECTION PROPERTIES"
   Section=BASE   Material=4000Psi   MatAngle=0   AreaType=Shell   Type=Shell-Thin   DrillDOF=Yes   Thickness=1   BendThick=1   Color=Yellow   F11Mod=1   F22Mod=1   F12Mod=1   M11Mod=1   M22Mod=1   M12Mod=1   V13Mod=1   V23Mod=1   MMod=1 _
        WMod=1   Notes="Added 1/1/2019 2:33:21 AM"
 
TABLE:  "AREA SECTION PROPERTY DESIGN PARAMETERS"
   Section=BASE   RebarMat=None   RebarOpt=Default
 
TABLE:  "AREA SECTION PROPERTY - TIME DEPENDENT"
   Section=BASE   TypeSize=Auto   AutoSFSize=1
 
TABLE:  "AREA STIFFNESS MODIFIERS"
   Area=2   f11=1   f22=0   f12=1   m11=1   m22=1   m12=1   v13=1   v23=1   MassMod=1   WeightMod=1
   Area=6   f11=1   f22=0   f12=1   m11=1   m22=1   m12=1   v13=1   v23=1   MassMod=1   WeightMod=1
   Area=7   f11=1   f22=0   f12=1   m11=1   m22=1   m12=1   v13=1   v23=1   MassMod=1   WeightMod=1
 
TABLE:  "AUTO WAVE 3 - WAVE CHARACTERISTICS - GENERAL"
   WaveChar=Default   WaveType="From Theory"   KinFactor=1   SWaterDepth=150   WaveHeight=60   WavePeriod=12   WaveTheory=Linear
 
TABLE:  "CASE - MODAL 1 - GENERAL"
   Case=MODAL   ModeType=Eigen   MaxNumModes=12   MinNumModes=1   EigenShift=0   EigenCutoff=0   EigenTol=1E-09   AutoShift=Yes
 
TABLE:  "CASE - STATIC 1 - LOAD ASSIGNMENTS"
   Case=DEAD   LoadType="Load pattern"   LoadName=DEAD   LoadSF=1
 
TABLE:  "CONNECTIVITY - AREA"
   Area=2   Joint1=1   Joint2=3   Joint3=19   Joint4=17   GUID=edeefb2b-bdcb-49f3-b320-67712aeeb6c8
   Area=6   Joint1=3   Joint2=5   Joint3=21   Joint4=19   GUID=99b4a684-1118-4592-bdf3-6edb683ca4ca
   Area=7   Joint1=5   Joint2=7   Joint3=23   Joint4=21   GUID=b15ed793-f49e-4584-bd01-9e9d5a7a2f10
 
TABLE:  "CONNECTIVITY - FRAME"
   Frame=1   JointI=1   JointJ=2   IsCurved=No   GUID=6ef7ae0f-1e7b-43d0-b153-a1116419f108
   Frame=2   JointI=3   JointJ=4   IsCurved=No   GUID=5fe3141f-5045-4df8-9a8a-d3f8316d047e
   Frame=3   JointI=5   JointJ=6   IsCurved=No   GUID=ab6ca665-ea85-47a6-b4cb-db111b84b4e1
   Frame=4   JointI=7   JointJ=8   IsCurved=No   GUID=64ff6993-cca9-453d-8327-328059ea2605
   Frame=5   JointI=1   JointJ=3   IsCurved=No   GUID=e5a4f143-cfa5-4c2f-b72a-0f7bd4cab542
   Frame=7   JointI=5   JointJ=3   IsCurved=No   GUID=d2354542-20b8-4a09-a45a-292a8937535e
   Frame=8   JointI=5   JointJ=7   IsCurved=No   GUID=a5e337af-a1f3-459d-bf95-5f44a2f7ffa1
   Frame=9   JointI=2   JointJ=4   IsCurved=No   GUID=6bb40067-9af5-4c1d-81a3-cc26aaab04ea
   Frame=11   JointI=6   JointJ=8   IsCurved=No   GUID=2ec96e5f-31e4-49b0-8fee-9889963c74ae
   Frame=12   JointI=4   JointJ=6   IsCurved=No   GUID=ad91e222-54b8-4ffb-ab22-ea2b63128529
   Frame=13   JointI=2   JointJ=3   IsCurved=No   GUID=5b16cdeb-3275-4821-af52-f86a706d2e4c
   Frame=15   JointI=1   JointJ=4   IsCurved=No   GUID=b22a2983-4459-405e-a576-f5f0a4867d54
   Frame=16   JointI=4   JointJ=5   IsCurved=No   GUID=7c47c830-e1ea-4d2c-8285-e1f124494d30
   Frame=18   JointI=5   JointJ=8   IsCurved=No   GUID=b83de15b-f40f-4fdf-a435-2bb1ceb4f3b7
   Frame=19   JointI=3   JointJ=6   IsCurved=No   GUID=069b4bd4-8380-4338-a18d-e652e4ed8dda
   Frame=21   JointI=6   JointJ=7   IsCurved=No   GUID=e939a9f9-d5b9-4a50-a2c6-6b780ad73949
   Frame=48   JointI=17   JointJ=18   IsCurved=No   GUID=66d015c1-981d-46fb-abc7-d861d1b5d446
   Frame=49   JointI=19   JointJ=20   IsCurved=No   GUID=80b4772f-888c-4320-81d5-3a73add556e4
   Frame=50   JointI=21   JointJ=22   IsCurved=No   GUID=71e71b9e-a44f-490d-be43-6771304d6222
   Frame=51   JointI=23   JointJ=24   IsCurved=No   GUID=cc528708-2d15-4a45-ace8-762d3372ce4d
   Frame=52   JointI=17   JointJ=19   IsCurved=No   GUID=b1d67aa2-16ae-446a-994d-569a00fc7418
   Frame=53   JointI=21   JointJ=19   IsCurved=No   GUID=5f643495-5d2d-44d5-b996-4cb531b0f31f
   Frame=54   JointI=21   JointJ=23   IsCurved=No   GUID=a9886a22-fad1-481f-8a34-09392fc1718c
   Frame=55   JointI=18   JointJ=20   IsCurved=No   GUID=24f99cce-4c4a-4d01-bd26-f0ec80f43b0d
   Frame=56   JointI=22   JointJ=24   IsCurved=No   GUID=fb376654-fcb9-48ab-bd1b-bd18b1b29801
   Frame=57   JointI=20   JointJ=22   IsCurved=No   GUID=9ffce7f7-9787-4297-b05f-c38e0a6f2dc6
   Frame=58   JointI=18   JointJ=19   IsCurved=No   GUID=a6797b1c-4fec-4ef4-9601-065221cd5442
   Frame=59   JointI=17   JointJ=20   IsCurved=No   GUID=5154e84c-56bc-44c8-848a-1b49bb550c52
   Frame=60   JointI=20   JointJ=21   IsCurved=No   GUID=0d0fd6a3-5b60-4776-963c-e9c7a9b95275
   Frame=61   JointI=21   JointJ=24   IsCurved=No   GUID=e27182d0-d0ac-4bcb-89f0-2a24660960ca
   Frame=62   JointI=19   JointJ=22   IsCurved=No   GUID=8a780d42-31d3-4bad-b8d1-16a65f298e4d
   Frame=63   JointI=22   JointJ=23   IsCurved=No   GUID=5c3bbec2-96d2-458c-ae0e-32daf6c6176c
   Frame=64   JointI=8   JointJ=24   IsCurved=No   GUID=744e623f-4938-448e-8381-80d093eeb9cc
   Frame=65   JointI=7   JointJ=23   IsCurved=No   GUID=d902b206-efc8-4f88-8f11-cc1270235052
   Frame=66   JointI=18   JointJ=2   IsCurved=No   GUID=eede412d-516e-4781-9f48-d7f1d440a3ba
   Frame=67   JointI=17   JointJ=1   IsCurved=No   GUID=de0cf748-d2f9-4303-a268-9fb7c4d67784
   Frame=68   JointI=21   JointJ=5   IsCurved=No   GUID=ac38c09f-a929-424a-84b8-ce7e9691881c
   Frame=69   JointI=19   JointJ=3   IsCurved=No   GUID=2ebc84f3-0c04-4b6f-85cb-6fcf8a189da7
   Frame=140   JointI=22   JointJ=6   IsCurved=No   GUID=3ed00329-8e10-4f7d-bc43-753953b1325f
   Frame=141   JointI=18   JointJ=4   IsCurved=No   GUID=e8fe8a17-5f1a-4ef4-9b2e-340145b6482f
   Frame=142   JointI=2   JointJ=20   IsCurved=No   GUID=ba7268a4-2a52-4f88-a3a2-eec91a96645f
   Frame=143   JointI=20   JointJ=6   IsCurved=No   GUID=4966b0d6-96a9-450c-a500-37858c1cd41e
   Frame=144   JointI=24   JointJ=6   IsCurved=No   GUID=c0caad4a-e1a5-40fe-957e-f32a68a0f678
   Frame=145   JointI=4   JointJ=22   IsCurved=No   GUID=546b1d0c-a6b4-4379-bbe7-70cbbf38ae2f
   Frame=146   JointI=22   JointJ=8   IsCurved=No   GUID=0c0a5cbc-b8d2-462e-a1b5-78663fc34939
   Frame=147   JointI=20   JointJ=4   IsCurved=No   GUID=a6563505-2b2e-4b82-b7ae-85210df748e5
 
TABLE:  "COORDINATE SYSTEMS"
   Name=GLOBAL   Type=Cartesian   X=0   Y=0   Z=0   AboutZ=0   AboutY=0   AboutX=0
 
TABLE:  "DATABASE DOCUMENTATION"
 
TABLE:  "DATABASE FORMAT TYPES"
   UnitsCurr=Yes   OverrideE=No
 
TABLE:  "FRAME AUTO MESH ASSIGNMENTS"
   Frame=1   AutoMesh=Yes   AtJoints=Yes   AtFrames=No   NumSegments=0   MaxLength=0   MaxDegrees=0
   Frame=2   AutoMesh=Yes   AtJoints=Yes   AtFrames=No   NumSegments=0   MaxLength=0   MaxDegrees=0
   Frame=3   AutoMesh=Yes   AtJoints=Yes   AtFrames=No   NumSegments=0   MaxLength=0   MaxDegrees=0
   Frame=4   AutoMesh=Yes   AtJoints=Yes   AtFrames=No   NumSegments=0   MaxLength=0   MaxDegrees=0
   Frame=5   AutoMesh=Yes   AtJoints=Yes   AtFrames=No   NumSegments=0   MaxLength=0   MaxDegrees=0
   Frame=7   AutoMesh=Yes   AtJoints=Yes   AtFrames=No   NumSegments=0   MaxLength=0   MaxDegrees=0
   Frame=8   AutoMesh=Yes   AtJoints=Yes   AtFrames=No   NumSegments=0   MaxLength=0   MaxDegrees=0
   Frame=9   AutoMesh=Yes   AtJoints=Yes   AtFrames=No   NumSegments=0   MaxLength=0   MaxDegrees=0
   Frame=11   AutoMesh=Yes   AtJoints=Yes   AtFrames=No   NumSegments=0   MaxLength=0   MaxDegrees=0
   Frame=12   AutoMesh=Yes   AtJoints=Yes   AtFrames=No   NumSegments=0   MaxLength=0   MaxDegrees=0
   Frame=13   AutoMesh=Yes   AtJoints=Yes   AtFrames=No   NumSegments=0   MaxLength=0   MaxDegrees=0
   Frame=15   AutoMesh=Yes   AtJoints=Yes   AtFrames=No   NumSegments=0   MaxLength=0   MaxDegrees=0
   Frame=16   AutoMesh=Yes   AtJoints=Yes   AtFrames=No   NumSegments=0   MaxLength=0   MaxDegrees=0
   Frame=18   AutoMesh=Yes   AtJoints=Yes   AtFrames=No   NumSegments=0   MaxLength=0   MaxDegrees=0
   Frame=19   AutoMesh=Yes   AtJoints=Yes   AtFrames=No   NumSegments=0   MaxLength=0   MaxDegrees=0
   Frame=21   AutoMesh=Yes   AtJoints=Yes   AtFrames=No   NumSegments=0   MaxLength=0   MaxDegrees=0
   Frame=48   AutoMesh=Yes   AtJoints=Yes   AtFrames=No   NumSegments=0   MaxLength=0   MaxDegrees=0
   Frame=49   AutoMesh=Yes   AtJoints=Yes   AtFrames=No   NumSegments=0   MaxLength=0   MaxDegrees=0
   Frame=50   AutoMesh=Yes   AtJoints=Yes   AtFrames=No   NumSegments=0   MaxLength=0   MaxDegrees=0
   Frame=51   AutoMesh=Yes   AtJoints=Yes   AtFrames=No   NumSegments=0   MaxLength=0   MaxDegrees=0
# ... 26 like lines cut
 
TABLE:  "FRAME DESIGN PROCEDURES"
   Frame=1   DesignProc="From Material"
   Frame=2   DesignProc="From Material"
   Frame=3   DesignProc="From Material"
   Frame=4   DesignProc="From Material"
   Frame=5   DesignProc="From Material"
   Frame=7   DesignProc="From Material"
   Frame=8   DesignProc="From Material"
   Frame=9   DesignProc="From Material"
   Frame=11   DesignProc="From Material"
   Frame=12   DesignProc="From Material"
   Frame=13   DesignProc="From Material"
   Frame=15   DesignProc="From Material"
   Frame=16   DesignProc="From Material"
   Frame=18   DesignProc="From Material"
   Frame=19   DesignProc="From Material"
   Frame=21   DesignProc="From Material"
   Frame=48   DesignProc="From Material"
   Frame=49   DesignProc="From Material"
   Frame=50   DesignProc="From Material"
   Frame=51   DesignProc="From Material"
# ... 26 like lines cut
 
TABLE:  "FRAME LOAD TRANSFER OPTIONS"
   Frame=1   Transfer=Yes
   Frame=2   Transfer=Yes
   Frame=3   Transfer=Yes
   Frame=4   Transfer=Yes
   Frame=5   Transfer=Yes
   Frame=7   Transfer=Yes
   Frame=8   Transfer=Yes
   Frame=9   Transfer=Yes
   Frame=11   Transfer=Yes
   Frame=12   Transfer=Yes
   Frame=13   Transfer=Yes
   Frame=15   Transfer=Yes
   Frame=16   Transfer=Yes
   Frame=18   Transfer=Yes
   Frame=19   Transfer=Yes
   Frame=21   Transfer=Yes
   Frame=48   Transfer=Yes
   Frame=49   Transfer=Yes
   Frame=50   Transfer=Yes
   Frame=51   Transfer=Yes
# ... 26 like lines cut
 
TABLE:  "FRAME OUTPUT STATION ASSIGNMENTS"
   Frame=1   StationType=MinNumSta   MinNumSta=3   AddAtElmInt=Yes   AddAtPtLoad=Yes
   Frame=2   StationType=MinNumSta   MinNumSta=3   AddAtElmInt=Yes   AddAtPtLoad=Yes
   Frame=3   StationType=MinNumSta   MinNumSta=3   AddAtElmInt=Yes   AddAtPtLoad=Yes
   Frame=4   StationType=MinNumSta   MinNumSta=3   AddAtElmInt=Yes   AddAtPtLoad=Yes
   Frame=5   StationType=MaxStaSpcg   MaxStaSpcg=2   AddAtElmInt=Yes   AddAtPtLoad=Yes
   Frame=7   StationType=MaxStaSpcg   MaxStaSpcg=2   AddAtElmInt=Yes   AddAtPtLoad=Yes
   Frame=8   StationType=MaxStaSpcg   MaxStaSpcg=2   AddAtElmInt=Yes   AddAtPtLoad=Yes
   Frame=9   StationType=MaxStaSpcg   MaxStaSpcg=2   AddAtElmInt=Yes   AddAtPtLoad=Yes
   Frame=11   StationType=MaxStaSpcg   MaxStaSpcg=2   AddAtElmInt=Yes   AddAtPtLoad=Yes
   Frame=12   StationType=MaxStaSpcg   MaxStaSpcg=2   AddAtElmInt=Yes   AddAtPtLoad=Yes
   Frame=13   StationType=MinNumSta   MinNumSta=3   AddAtElmInt=Yes   AddAtPtLoad=Yes
   Frame=15   StationType=MinNumSta   MinNumSta=3   AddAtElmInt=Yes   AddAtPtLoad=Yes
   Frame=16   StationType=MinNumSta   MinNumSta=3   AddAtElmInt=Yes   AddAtPtLoad=Yes
   Frame=18   StationType=MinNumSta   MinNumSta=3   AddAtElmInt=Yes   AddAtPtLoad=Yes
   Frame=19   StationType=MinNumSta   MinNumSta=3   AddAtElmInt=Yes   AddAtPtLoad=Yes
   Frame=21   StationType=MinNumSta   MinNumSta=3   AddAtElmInt=Yes   AddAtPtLoad=Yes
   Frame=48   StationType=MinNumSta   MinNumSta=3   AddAtElmInt=Yes   AddAtPtLoad=Yes
   Frame=49   StationType=MinNumSta   MinNumSta=3   AddAtElmInt=Yes   AddAtPtLoad=Yes
   Frame=50   StationType=MinNumSta   MinNumSta=3   AddAtElmInt=Yes   AddAtPtLoad=Yes
   Frame=51   StationType=MinNumSta   MinNumSta=3   AddAtElmInt=Yes   AddAtPtLoad=Yes
   Frame=52   StationType=MaxStaSpcg   MaxStaSpcg=2   AddAtElmInt=Yes   AddAtPtLoad=Yes
   Frame=53   StationType=MaxStaSpcg   MaxStaSpcg=2   AddAtElmInt=Yes   AddAtPtLoad=Yes
   Frame=54   StationType=MaxStaSpcg   MaxStaSpcg=2   AddAtElmInt=Yes   AddAtPtLoad=Yes
   Frame=55   StationType=MaxStaSpcg   MaxStaSpcg=2   AddAtElmInt=Yes   AddAtPtLoad=Yes
   Frame=56   StationType=MaxStaSpcg   MaxStaSpcg=2   AddAtElmInt=Yes   AddAtPtLoad=Yes
   Frame=57   StationType=MaxStaSpcg   MaxStaSpcg=2   AddAtElmInt=Yes   AddAtPtLoad=Yes
   Frame=58   StationType=MinNumSta   MinNumSta=3   AddAtElmInt=Yes   AddAtPtLoad=Yes
   Frame=59   StationType=MinNumSta   MinNumSta=3   AddAtElmInt=Yes   AddAtPtLoad=Yes
   Frame=60   StationType=MinNumSta   MinNumSta=3   AddAtElmInt=Yes   AddAtPtLoad=Yes
   Frame=61   StationType=MinNumSta   MinNumSta=3   AddAtElmInt=Yes   AddAtPtLoad=Yes
   Frame=62   StationType=MinNumSta   MinNumSta=3   AddAtElmInt=Yes   AddAtPtLoad=Yes
   Frame=63   StationType=MinNumSta   MinNumSta=3   AddAtElmInt=Yes   AddAtPtLoad=Yes
   Frame=64   StationType=MaxStaSpcg   MaxStaSpcg=2   AddAtElmInt=Yes   AddAtPtLoad=Yes
   Frame=65   StationType=MaxStaSpcg   MaxStaSpcg=2   AddAtElmInt=Yes   AddAtPtLoad=Yes
   Frame=66   StationType=MaxStaSpcg   MaxStaSpcg=2   AddAtElmInt=Yes   AddAtPtLoad=Yes
   Frame=67   StationType=MaxStaSpcg   MaxStaSpcg=2   AddAtElmInt=Yes   AddAtPtLoad=Yes
   Frame=68   StationType=MaxStaSpcg   MaxStaSpcg=2   AddAtElmInt=Yes   AddAtPtLoad=Yes
   Frame=69   StationType=MaxStaSpcg   MaxStaSpcg=2   AddAtElmInt=Yes   AddAtPtLoad=Yes
   Frame=140   StationType=MaxStaSpcg   MaxStaSpcg=2   AddAtElmInt=Yes   AddAtPtLoad=Yes
   Frame=141   StationType=MaxStaSpcg   MaxStaSpcg=2   AddAtElmInt=Yes   AddAtPtLoad=Yes
   Frame=142   StationType=MaxStaSpcg   MaxStaSpcg=2   AddAtElmInt=Yes   AddAtPtLoad=Yes
   Frame=143   StationType=MaxStaSpcg   MaxStaSpcg=2   AddAtElmInt=Yes   AddAtPtLoad=Yes
   Frame=144   StationType=MaxStaSpcg   MaxStaSpcg=2   AddAtElmInt=Yes   AddAtPtLoad=Yes
   Frame=145   StationType=MaxStaSpcg   MaxStaSpcg=2   AddAtElmInt=Yes   AddAtPtLoad=Yes
   Frame=146   StationType=MaxStaSpcg   MaxStaSpcg=2   AddAtElmInt=Yes   AddAtPtLoad=Yes
   Frame=147   StationType=MaxStaSpcg   MaxStaSpcg=2   AddAtElmInt=Yes   AddAtPtLoad=Yes
 
TABLE:  "FRAME SECTION ASSIGNMENTS"
   Frame=1   AutoSelect=N.A.   AnalSect=HSS8X8X3/8   MatProp=Default
   Frame=2   AutoSelect=N.A.   AnalSect=HSS8X8X3/8   MatProp=Default
   Frame=3   AutoSelect=N.A.   AnalSect=HSS8X8X3/8   MatProp=Default
   Frame=4   AutoSelect=N.A.   AnalSect=HSS8X8X3/8   MatProp=Default
   Frame=5   AutoSelect=N.A.   AnalSect=HSS8X8X3/8   MatProp=Default
   Frame=7   AutoSelect=N.A.   AnalSect=HSS8X8X3/8   MatProp=Default
   Frame=8   AutoSelect=N.A.   AnalSect=HSS8X8X3/8   MatProp=Default
   Frame=9   AutoSelect=N.A.   AnalSect=HSS8X8X3/8   MatProp=Default
   Frame=11   AutoSelect=N.A.   AnalSect=HSS8X8X3/8   MatProp=Default
   Frame=12   AutoSelect=N.A.   AnalSect=HSS8X8X3/8   MatProp=Default
   Frame=13   AutoSelect=N.A.   AnalSect=HSS8X8X3/8   MatProp=Default
   Frame=15   AutoSelect=N.A.   AnalSect=HSS8X8X3/8   MatProp=Default
   Frame=16   AutoSelect=N.A.   AnalSect=HSS8X8X3/8   MatProp=Default
   Frame=18   AutoSelect=N.A.   AnalSect=HSS8X8X3/8   MatProp=Default
   Frame=19   AutoSelect=N.A.   AnalSect=HSS8X8X3/8   MatProp=Default
   Frame=21   AutoSelect=N.A.   AnalSect=HSS8X8X3/8   MatProp=Default
   Frame=48   AutoSelect=N.A.   AnalSect=HSS8X8X3/8   MatProp=Default
   Frame=49   AutoSelect=N.A.   AnalSect=HSS8X8X3/8   MatProp=Default
   Frame=50   AutoSelect=N.A.   AnalSect=HSS8X8X3/8   MatProp=Default
   Frame=51   AutoSelect=N.A.   AnalSect=HSS8X8X3/8   MatProp=Default
# ... 12 like lines cut
   Frame=64   AutoSelect=N.A.   AnalSect=W8X67   MatProp=Default
   Frame=65   AutoSelect=N.A.   AnalSect=W8X67   MatProp=Default
   Frame=66   AutoSelect=N.A.   AnalSect=W8X67   MatProp=Default
   Frame=67   AutoSelect=N.A.   AnalSect=W8X67   MatProp=Default
   Frame=68   AutoSelect=N.A.   AnalSect=W8X67   MatProp=Default
   Frame=69   AutoSelect=N.A.   AnalSect=W8X67   MatProp=Default
   Frame=140   AutoSelect=N.A.   AnalSect=W8X67   MatProp=Default
   Frame=141   AutoSelect=N.A.   AnalSect=W8X67   MatProp=Default
   Frame=142   AutoSelect=N.A.   AnalSect=W8X67   MatProp=Default
   Frame=143   AutoSelect=N.A.   AnalSect=W8X67   MatProp=Default
   Frame=144   AutoSelect=N.A.   AnalSect=W8X67   MatProp=Default
   Frame=145   AutoSelect=N.A.   AnalSect=W8X67   MatProp=Default
   Frame=146   AutoSelect=N.A.   AnalSect=W8X67   MatProp=Default
   Frame=147   AutoSelect=N.A.   AnalSect=W8X67   MatProp=Default
 
TABLE:  "FRAME SECTION PROPERTIES 01 - GENERAL"
   SectionName=AUTO1   Shape="Auto Select"   AutoType=Steel   Color=Cyan   Notes="Imported 1/1/2019 1:59:18 AM from SECTIONS8.PRO"
   SectionName=HSS8X8X3/8   Material=A36   Shape=Box/Tube   t3=0.666666666666667   t2=0.666666666666667   tf=0.0290833339095116   tw=0.0290833339095116   Area=0.0722222195731269   TorsConst=0.00771604938271605   I33=0.00482253086419753 _
        I22=0.00482253086419753   I23=0   AS2=0.0387777785460154   AS3=0.0387777785460154   S33=0.0144675925925926   S22=0.0144675925925926   Z33=0.0170138886681309   Z22=0.0170138886681309   R33=0.258405701799983   R22=0.258405701799983 _
        Color=Blue   FromFile=Yes   AMod=1   A2Mod=1   A3Mod=1   JMod=1   I2Mod=1   I3Mod=1   MMod=1   WMod=1   SectInFile=HSS8X8X3/8   FileName="c:\program files\computers and structures\sap2000 20\sections8.pro"   Notes="Imported 1/1/2019 1:58:00 AM from SECTIONS8.PRO"
   SectionName=W8X10   Material=A992Fy50   Shape="I/Wide Flange"   t3=0.6574999888738   t2=0.328333338101705   tf=0.0170833331843217   tw=0.0141666668156783   t2b=0.328333338101705   tfb=0.0170833331843217   Area=0.0205555558204651 _
        TorsConst=2.05439807168771E-06   I33=0.00148533946937985   I22=0.000100790890922517   I23=0   AS2=0.009314583407508   AS3=0.00934837924109565   S33=0.00451814294909424   S22=0.000613954656601431   Z33=0.00513310178562447 _
        Z22=0.000960648128831828   R33=0.268811750186973   R22=0.0700238571936882   Color=Red   FromFile=Yes   AMod=1   A2Mod=1   A3Mod=1   JMod=1   I2Mod=1   I3Mod=1   MMod=1   WMod=1   SectInFile=W8X10 _
        FileName="c:\program files\computers and structures\sap2000 20\sections8.pro"   Notes="Imported 1/1/2019 1:59:18 AM from SECTIONS8.PRO"
   SectionName=W8X13   Material=A992Fy50   Shape="I/Wide Flange"   t3=0.665833314259847   t2=0.333333333333333   tf=0.0212499996026357   tw=0.0191666670143604   t2b=0.333333333333333   tfb=0.0212499996026357   Area=0.0266666660706202 _
        TorsConst=4.2004243436235E-06   I33=0.00190972214863624   I22=0.000131655093512417   I23=0   AS2=0.0127618056204584   AS3=0.0118055558866925   S33=0.00573633703131579   S22=0.000789930561074504   Z33=0.00659722200146428 _
        Z22=0.00124421301815245   R33=0.267609009890492   R22=0.0702642591725529   Color=Magenta   FromFile=Yes   AMod=1   A2Mod=1   A3Mod=1   JMod=1   I2Mod=1   I3Mod=1   MMod=1   WMod=1   SectInFile=W8X13 _
        FileName="c:\program files\computers and structures\sap2000 20\sections8.pro"   Notes="Imported 1/1/2019 1:59:18 AM from SECTIONS8.PRO"
   SectionName=W8X15   Material=A992Fy50   Shape="I/Wide Flange"   t3=0.675833304723104   t2=0.334166685740153   tf=0.0262499998013178   tw=0.020416667064031   t2b=0.334166685740153   tfb=0.0262499998013178   Area=0.0308333337306976 _
        TorsConst=6.606867019501E-06   I33=0.00231481481481481   I22=0.000164448306608347   I23=0   AS2=0.0137982641657193   AS3=0.0146197908454471   S33=0.00685025374937158   S22=0.000984229210306271   Z33=0.00787037059112831 _
        Z22=0.00154513893304048   R33=0.27399831041002   R22=0.0730305314506765   Color=Yellow   FromFile=Yes   AMod=1   A2Mod=1   A3Mod=1   JMod=1   I2Mod=1   I3Mod=1   MMod=1   WMod=1   SectInFile=W8X15 _
        FileName="c:\program files\computers and structures\sap2000 20\sections8.pro"   Notes="Imported 1/1/2019 1:59:18 AM from SECTIONS8.PRO"
   SectionName=W8X18   Material=A992Fy50   Shape="I/Wide Flange"   t3=0.678333361943563   t2=0.4375   tf=0.0275000010927518   tw=0.0191666670143604   t2b=0.4375   tfb=0.0275000010927518   Area=0.036527779367235 _
        TorsConst=8.29475336811609E-06   I33=0.00298514667852425   I22=0.000384355699758471   I23=0   AS2=0.0130013889736599   AS3=0.0200520836644702   S33=0.00880141489715677   S22=0.00175705462746729   Z33=0.00983796296296296 _
        Z22=0.00269675917095608   R33=0.285871725003366   R22=0.102578189000969   Color=Gray8Dark   FromFile=Yes   AMod=1   A2Mod=1   A3Mod=1   JMod=1   I2Mod=1   I3Mod=1   MMod=1   WMod=1   SectInFile=W8X18 _
        FileName="c:\program files\computers and structures\sap2000 20\sections8.pro"   Notes="Imported 1/1/2019 1:59:18 AM from SECTIONS8.PRO"
   SectionName=W8X21   Material=A992Fy50   Shape="I/Wide Flange"   t3=0.689999977747599   t2=0.439166665077209   tf=0.0333333338300387   tw=0.0208333333333333   t2b=0.439166665077209   tfb=0.0333333338300387   Area=0.0427777767181396 _
        TorsConst=1.35995372899888E-05   I33=0.0036313658879127   I22=0.000471161287507893   I23=0   AS2=0.0143749995364083   AS3=0.024398148059845   S33=0.0105256985652862   S22=0.00214570606093274   Z33=0.0118055553347976 _
        Z22=0.00329282410718777   R33=0.291357297501229   R22=0.104948369403941   Color=Blue   FromFile=Yes   AMod=1   A2Mod=1   A3Mod=1   JMod=1   I2Mod=1   I3Mod=1   MMod=1   WMod=1   SectInFile=W8X21 _
        FileName="c:\program files\computers and structures\sap2000 20\sections8.pro"   Notes="Imported 1/1/2019 1:59:18 AM from SECTIONS8.PRO"
   SectionName=W8X24   Material=A992Fy50   Shape="I/Wide Flange"   t3=0.660833319028219   t2=0.541666666666667   tf=0.0333333338300387   tw=0.020416667064031   t2b=0.541666666666667   tfb=0.0333333338300387   Area=0.0491666661368476 _
        TorsConst=1.66859561117527E-05   I33=0.0039882328775194   I22=0.000882523111355157   I23=0   AS2=0.0134920138451788   AS3=0.0300925936963823   S33=0.0120703141402865   S22=0.00325854687269597   Z33=0.0133680557763135 _
        Z22=0.00495949056413439   R33=0.284809764180954   R22=0.133976202354219   Color=Green   FromFile=Yes   AMod=1   A2Mod=1   A3Mod=1   JMod=1   I2Mod=1   I3Mod=1   MMod=1   WMod=1   SectInFile=W8X24 _
        FileName="c:\program files\computers and structures\sap2000 20\sections8.pro"   Notes="Imported 1/1/2019 1:59:18 AM from SECTIONS8.PRO"
   SectionName=W8X28   Material=A992Fy50   Shape="I/Wide Flange"   t3=0.671666701634725   t2=0.544999996821086   tf=0.0387500002980232   tw=0.0237499997019768   t2b=0.544999996821086   tfb=0.0387500002980232   Area=0.057222220632765 _
        TorsConst=2.58969907637364E-05   I33=0.00472608024691358   I22=0.00104648923432385   I23=0   AS2=0.0159520837995741   AS3=0.0351979169580671   S33=0.0140726947916611   S22=0.00384032748780877   Z33=0.0157407411822566 _
        Z22=0.00584490762816535   R33=0.287387710122625   R22=0.135233730572377   Color=Cyan   FromFile=Yes   AMod=1   A2Mod=1   A3Mod=1   JMod=1   I2Mod=1   I3Mod=1   MMod=1   WMod=1   SectInFile=W8X28 _
        FileName="c:\program files\computers and structures\sap2000 20\sections8.pro"   Notes="Imported 1/1/2019 1:59:18 AM from SECTIONS8.PRO"
   SectionName=W8X31   Material=A992Fy50   Shape="I/Wide Flange"   t3=0.666666666666667   t2=0.666666666666667   tf=0.0362500001986821   tw=0.0237499997019768   t2b=0.666666666666667   tfb=0.0362500001986821   Area=0.0633333325386047 _
        TorsConst=2.58487660759761E-05   I33=0.00530478395061728   I22=0.0017891588770313   I23=0   AS2=0.0158333331346512   AS3=0.0402777791023254   S33=0.0159143518518519   S22=0.00536747663109391   Z33=0.0175925923718346 _
        Z22=0.00815972244298017   R33=0.289412763436135   R22=0.168076998308057   Color=Red   FromFile=Yes   AMod=1   A2Mod=1   A3Mod=1   JMod=1   I2Mod=1   I3Mod=1   MMod=1   WMod=1   SectInFile=W8X31 _
        FileName="c:\program files\computers and structures\sap2000 20\sections8.pro"   Notes="Imported 1/1/2019 1:59:18 AM from SECTIONS8.PRO"
   SectionName=W8X35   Material=A992Fy50   Shape="I/Wide Flange"   t3=0.676666657129923   t2=0.668333371480306   tf=0.0412500003973643   tw=0.0258333335320155   t2b=0.668333371480306   tfb=0.0412500003973643   Area=0.0715277791023254 _
        TorsConst=3.7085262046736E-05   I33=0.00612461419753086   I22=0.00205439807456217   I23=0   AS2=0.0174805555078718   AS3=0.0459479159779019   S33=0.0181023082281263   S22=0.00614782431112735   Z33=0.0200810189600344 _
        Z22=0.00931712985038757   R33=0.292618647102838   R22=0.169474721676287   Color=Magenta   FromFile=Yes   AMod=1   A2Mod=1   A3Mod=1   JMod=1   I2Mod=1   I3Mod=1   MMod=1   WMod=1   SectInFile=W8X35 _
        FileName="c:\program files\computers and structures\sap2000 20\sections8.pro"   Notes="Imported 1/1/2019 1:59:18 AM from SECTIONS8.PRO"
   SectionName=W8X40   Material=A992Fy50   Shape="I/Wide Flange"   t3=0.6875   t2=0.672499974568685   tf=0.0466666668653488   tw=0.0300000011920929   t2b=0.672499974568685   tfb=0.0466666668653488   Area=0.0812499986754523 _
        TorsConst=5.40123459089685E-05   I33=0.0070408950617284   I22=0.00236786258073501   I23=0   AS2=0.0206250001986821   AS3=0.0523055560059018   S33=0.0204826038159372   S22=0.0070419707666269   Z33=0.0230324069658915 _
        Z22=0.0107060185185185   R33=0.294375901532716   R22=0.170712988801896   Color=Yellow   FromFile=Yes   AMod=1   A2Mod=1   A3Mod=1   JMod=1   I2Mod=1   I3Mod=1   MMod=1   WMod=1   SectInFile=W8X40 _
        FileName="c:\program files\computers and structures\sap2000 20\sections8.pro"   Notes="Imported 1/1/2019 1:59:18 AM from SECTIONS8.PRO"
   SectionName=W8X48   Material=A992Fy50   Shape="I/Wide Flange"   t3=0.708333333333333   t2=0.675833304723104   tf=0.0570833335320155   tw=0.0333333338300387   t2b=0.675833304723104   tfb=0.0570833335320155   Area=0.097916669315762 _
        TorsConst=9.45216067779211E-05   I33=0.00887345679012346   I22=0.00293692136988228   I23=0   AS2=0.0236111117733849   AS3=0.0642980337142944   S33=0.0250544662309368   S22=0.0086912596622789   Z33=0.0283564814814815 _
        Z22=0.0132523145940569   R33=0.301035770265416   R22=0.17318801856524   Color=Gray8Dark   FromFile=Yes   AMod=1   A2Mod=1   A3Mod=1   JMod=1   I2Mod=1   I3Mod=1   MMod=1   WMod=1   SectInFile=W8X48 _
        FileName="c:\program files\computers and structures\sap2000 20\sections8.pro"   Notes="Imported 1/1/2019 1:59:18 AM from SECTIONS8.PRO"
   SectionName=W8X58   Material=A992Fy50   Shape="I/Wide Flange"   t3=0.729166666666667   t2=0.685000022252401   tf=0.0675000001986821   tw=0.0424999992052714   t2b=0.685000022252401   tfb=0.0675000001986821   Area=0.118750002649095 _
        TorsConst=0.000160590274098479   I33=0.0109953703703704   I22=0.00362172060542636   I23=0   AS2=0.0309895839956072   AS3=0.0770625008477105   S33=0.0301587301587302   S22=0.0105743663876609   Z33=0.0346064810399656 _
        Z22=0.0161458331125754   R33=0.304290306331012   R22=0.174638767617042   Color=Blue   FromFile=Yes   AMod=1   A2Mod=1   A3Mod=1   JMod=1   I2Mod=1   I3Mod=1   MMod=1   WMod=1   SectInFile=W8X58 _
        FileName="c:\program files\computers and structures\sap2000 20\sections8.pro"   Notes="Imported 1/1/2019 1:59:18 AM from SECTIONS8.PRO"
   SectionName=W8X67   Material=A992Fy50   Shape="I/Wide Flange"   t3=0.75   t2=0.689999977747599   tf=0.0779166668653488   tw=0.0474999994039536   t2b=0.689999977747599   tfb=0.0779166668653488   Area=0.136805560853746 _
        TorsConst=0.000243537817840223   I33=0.0131172839506173   I22=0.00427276227209303   I23=0   AS2=0.0356250007947286   AS3=0.0896041658189562   S33=0.0349794238683128   S22=0.0123848185793884   Z33=0.0405671287465979 _
        Z22=0.018923611552627   R33=0.309649287100484   R22=0.176726830897391   Color=Cyan   FromFile=Yes   AMod=1   A2Mod=1   A3Mod=1   JMod=1   I2Mod=1   I3Mod=1   MMod=1   WMod=1   SectInFile=W8X67 _
        FileName="c:\program files\computers and structures\sap2000 20\sections8.pro"   Notes="Imported 1/1/2019 1:59:18 AM from SECTIONS8.PRO"
 
TABLE:  "FRAME SECTION PROPERTIES 04 - AUTO SELECT"
   ListName=AUTO1   SectionName=W8X10
   ListName=AUTO1   SectionName=W8X13
   ListName=AUTO1   SectionName=W8X15
   ListName=AUTO1   SectionName=W8X18
   ListName=AUTO1   SectionName=W8X21
   ListName=AUTO1   SectionName=W8X24
   ListName=AUTO1   SectionName=W8X28
   ListName=AUTO1   SectionName=W8X31
   ListName=AUTO1   SectionName=W8X35
   ListName=AUTO1   SectionName=W8X40
   ListName=AUTO1   SectionName=W8X48
   ListName=AUTO1   SectionName=W8X58
   ListName=AUTO1   SectionName=W8X67
 
TABLE:  "FRAME SECTION PROPERTIES 13 - TIME DEPENDENT"
   SectionName=HSS8X8X3/8   TypeSize=Auto   AutoSFSize=0
   SectionName=W8X10   TypeSize=Auto   AutoSFSize=0
   SectionName=W8X13   TypeSize=Auto   AutoSFSize=0
   SectionName=W8X15   TypeSize=Auto   AutoSFSize=0
   SectionName=W8X18   TypeSize=Auto   AutoSFSize=0
   SectionName=W8X21   TypeSize=Auto   AutoSFSize=0
   SectionName=W8X24   TypeSize=Auto   AutoSFSize=0
   SectionName=W8X28   TypeSize=Auto   AutoSFSize=0
   SectionName=W8X31   TypeSize=Auto   AutoSFSize=0
   SectionName=W8X35   TypeSize=Auto   AutoSFSize=0
   SectionName=W8X40   TypeSize=Auto   AutoSFSize=0
   SectionName=W8X48   TypeSize=Auto   AutoSFSize=0
   SectionName=W8X58   TypeSize=Auto   AutoSFSize=0
   SectionName=W8X67   TypeSize=Auto   AutoSFSize=0
 
TABLE:  "FUNCTION - PLOT FUNCTIONS"
   PlotFunc="Input Energy"   Type=Energy   Component=Input   Mode=All
 
TABLE:  "FUNCTION - POWER SPECTRAL DENSITY - USER"
   Name=UNIFPSD   Frequency=0   Value=1
   Name=UNIFPSD   Frequency=1   Value=1
 
TABLE:  "FUNCTION - RESPONSE SPECTRUM - USER"
   Name=UNIFRS   Period=0   Accel=1   FuncDamp=0.05
   Name=UNIFRS   Period=1   Accel=1
 
TABLE:  "FUNCTION - STEADY STATE - USER"
   Name=UNIFSS   Frequency=0   Value=1
   Name=UNIFSS   Frequency=1   Value=1
 
TABLE:  "FUNCTION - TIME HISTORY - USER"
   Name=RAMPTH   Time=0   Value=0
   Name=RAMPTH   Time=1   Value=1
   Name=RAMPTH   Time=4   Value=1
   Name=UNIFTH   Time=0   Value=1
   Name=UNIFTH   Time=1   Value=1
 
TABLE:  "GRID LINES"
   CoordSys=GLOBAL   AxisDir=X   GridID=A   XRYZCoord=0   LineType=Primary   LineColor=Gray8Dark   Visible=Yes   BubbleLoc=End   AllVisible=Yes   BubbleSize=3.5
   CoordSys=GLOBAL   AxisDir=X   GridID=B   XRYZCoord=14   LineType=Primary   LineColor=Gray8Dark   Visible=Yes   BubbleLoc=End
   CoordSys=GLOBAL   AxisDir=X   GridID=C   XRYZCoord=28   LineType=Primary   LineColor=Gray8Dark   Visible=Yes   BubbleLoc=End
   CoordSys=GLOBAL   AxisDir=X   GridID=D   XRYZCoord=42   LineType=Primary   LineColor=Gray8Dark   Visible=Yes   BubbleLoc=End
   CoordSys=GLOBAL   AxisDir=Y   GridID=1   XRYZCoord=0   LineType=Primary   LineColor=Gray8Dark   Visible=Yes   BubbleLoc=Start
   CoordSys=GLOBAL   AxisDir=Y   GridID=2   XRYZCoord=14   LineType=Primary   LineColor=Gray8Dark   Visible=Yes   BubbleLoc=Start
   CoordSys=GLOBAL   AxisDir=Z   GridID=Z1   XRYZCoord=0   LineType=Primary   LineColor=Gray8Dark   Visible=Yes   BubbleLoc=End
   CoordSys=GLOBAL   AxisDir=Z   GridID=Z2   XRYZCoord=14   LineType=Primary   LineColor=Gray8Dark   Visible=Yes   BubbleLoc=End
 
TABLE:  "GROUPS 1 - DEFINITIONS"
   GroupName=ALL   Selection=Yes   SectionCut=Yes   Steel=Yes   Concrete=Yes   Aluminum=Yes   ColdFormed=Yes   Stage=Yes   Bridge=Yes   AutoSeismic=No   AutoWind=No   SelDesSteel=No   SelDesAlum=No   SelDesCold=No   MassWeight=Yes   Color=Red
 
TABLE:  "JOINT COORDINATES"
   Joint=1   CoordSys=GLOBAL   CoordType=Cartesian   XorR=0   Y=0   Z=0   SpecialJt=No   GUID=e49e29b5-3074-429e-90f7-f80447e75b7a
   Joint=2   CoordSys=GLOBAL   CoordType=Cartesian   XorR=0   Y=0   Z=14   SpecialJt=No   GUID=478d045e-5694-40a1-94c9-c291e5d6ec84
   Joint=3   CoordSys=GLOBAL   CoordType=Cartesian   XorR=14   Y=0   Z=0   SpecialJt=No   GUID=0bd7e5e1-d7d3-4c20-93c0-96a2e2acda3d
   Joint=4   CoordSys=GLOBAL   CoordType=Cartesian   XorR=14   Y=0   Z=20   SpecialJt=No   GUID=e0de8fd3-3407-4e27-8d8d-991e45011794
   Joint=5   CoordSys=GLOBAL   CoordType=Cartesian   XorR=28   Y=0   Z=0   SpecialJt=No   GUID=2fb8bc38-c493-49df-b0f9-d2451d87f37a
   Joint=6   CoordSys=GLOBAL   CoordType=Cartesian   XorR=28   Y=0   Z=20   SpecialJt=No   GUID=318868ab-bfba-49fd-b9f4-0f1ee811a822
   Joint=7   CoordSys=GLOBAL   CoordType=Cartesian   XorR=42   Y=0   Z=0   SpecialJt=No   GUID=93440dde-90d4-473e-b261-c91bc08356ad
   Joint=8   CoordSys=GLOBAL   CoordType=Cartesian   XorR=42   Y=0   Z=14   SpecialJt=No   GUID=92b4423d-6d11-421b-9116-2e0e2e313585
   Joint=17   CoordSys=GLOBAL   CoordType=Cartesian   XorR=0   Y=14   Z=0   SpecialJt=No   GUID=0cc449ae-9c5c-4a74-b5f6-df7e1a460bf7
   Joint=18   CoordSys=GLOBAL   CoordType=Cartesian   XorR=0   Y=14   Z=14   SpecialJt=No   GUID=98adb412-8da4-490f-afcb-16933dc165da
   Joint=19   CoordSys=GLOBAL   CoordType=Cartesian   XorR=14   Y=14   Z=0   SpecialJt=No   GUID=4388f03c-aefb-4e6c-aa21-409cba3611a0
   Joint=20   CoordSys=GLOBAL   CoordType=Cartesian   XorR=14   Y=14   Z=20   SpecialJt=No   GUID=2c4c9520-63f9-4a9c-ab57-e0adb17dd698
   Joint=21   CoordSys=GLOBAL   CoordType=Cartesian   XorR=28   Y=14   Z=0   SpecialJt=No   GUID=0a331b4c-a69e-4d41-b10b-59578149f82c
   Joint=22   CoordSys=GLOBAL   CoordType=Cartesian   XorR=28   Y=14   Z=20   SpecialJt=No   GUID=906ff033-3d3c-415e-987c-4c64438b9671
   Joint=23   CoordSys=GLOBAL   CoordType=Cartesian   XorR=42   Y=14   Z=0   SpecialJt=No   GUID=f4be3d69-8ac7-4e5c-b6a6-e5f240654d0c
   Joint=24   CoordSys=GLOBAL   CoordType=Cartesian   XorR=42   Y=14   Z=14   SpecialJt=No   GUID=b284886b-40c8-42cc-ade5-b0eff614c226
 
TABLE:  "JOINT PATTERN DEFINITIONS"
   Pattern=Default
 
TABLE:  "JOINT RESTRAINT ASSIGNMENTS"
   Joint=1   U1=Yes   U2=Yes   U3=Yes   R1=No   R2=No   R3=No
   Joint=7   U1=Yes   U2=Yes   U3=Yes   R1=No   R2=No   R3=No
   Joint=17   U1=Yes   U2=Yes   U3=Yes   R1=No   R2=No   R3=No
   Joint=23   U1=Yes   U2=Yes   U3=Yes   R1=No   R2=No   R3=No
 
TABLE:  "LOAD CASE DEFINITIONS"
   Case=DEAD   Type=LinStatic   InitialCond=Zero   DesTypeOpt="Prog Det"   DesignType=Dead   DesActOpt="Prog Det"   DesignAct=Non-Composite   AutoType=None   RunCase=Yes   GUID=dcb21189-19bb-4703-b600-621f6518cf40
   Case=MODAL   Type=LinModal   InitialCond=Zero   DesTypeOpt="Prog Det"   DesignType=Other   DesActOpt="Prog Det"   DesignAct=Other   AutoType=None   RunCase=Yes   GUID=bc2f25c3-50c1-4329-a473-b70a11c44b81
 
TABLE:  "LOAD PATTERN DEFINITIONS"
   LoadPat=DEAD   DesignType=Dead   SelfWtMult=1   GUID=36b38451-87b3-4c18-8623-166e7013dc81
 
TABLE:  "MASS SOURCE"
   MassSource=MSSSRC1   Elements=Yes   Masses=Yes   Loads=No   IsDefault=Yes
 
TABLE:  "MATERIAL PROPERTIES 01 - GENERAL"
   Material=4000Psi   Type=Concrete   Grade="f'c 4000 psi"   SymType=Isotropic   TempDepend=No   Color=Gray8Dark   Notes="Customary f'c 4000 psi 1/1/2019 1:49:33 AM"
   Material=A36   Type=Steel   Grade="Grade 36"   SymType=Isotropic   TempDepend=No   Color=Red   Notes="United States ASTM A36 Grade 36 added 1/1/2019 1:51:29 AM"
   Material=A992Fy50   Type=Steel   Grade="Grade 50"   SymType=Isotropic   TempDepend=No   Color=Yellow   Notes="ASTM A992 Grade 50 1/1/2019 1:49:33 AM"
 
TABLE:  "MATERIAL PROPERTIES 02 - BASIC MECHANICAL PROPERTIES"
   Material=4000Psi   UnitWeight=0.15000000000768   UnitMass=0.0046621423155456   E1=519119.496   G12=216299.79   U12=0.2   A1=5.5E-06
   Material=A36   UnitWeight=0.49   UnitMass=0.0152296649007508   E1=4176000   G12=1606153.84615385   U12=0.3   A1=6.5E-06
   Material=A992Fy50   UnitWeight=0.49   UnitMass=0.0152296649007508   E1=4176000   G12=1606153.84615385   U12=0.3   A1=6.5E-06
 
TABLE:  "MATERIAL PROPERTIES 03A - STEEL DATA"
   Material=A36   Fy=5184   Fu=8352   EffFy=7776   EffFu=9187.2   SSCurveOpt=Simple   SSHysType=Kinematic   SHard=0.02   SMax=0.14   SRup=0.2   FinalSlope=-0.1
   Material=A992Fy50   Fy=7200   Fu=9360   EffFy=7920   EffFu=10296   SSCurveOpt=Simple   SSHysType=Kinematic   SHard=0.015   SMax=0.11   SRup=0.17   FinalSlope=-0.1
 
TABLE:  "MATERIAL PROPERTIES 03B - CONCRETE DATA"
   Material=4000Psi   Fc=576   eFc=576   LtWtConc=No   SSCurveOpt=Mander   SSHysType=Takeda   SFc=0.00221914   SCap=0.005   FinalSlope=-0.1   FAngle=0   DAngle=0
 
TABLE:  "MATERIAL PROPERTIES 06 - DAMPING PARAMETERS"
   Material=4000Psi   ModalRatio=0   VisMass=0   VisStiff=0   HysMass=0   HysStiff=0
   Material=A36   ModalRatio=0   VisMass=0   VisStiff=0   HysMass=0   HysStiff=0
   Material=A992Fy50   ModalRatio=0   VisMass=0   VisStiff=0   HysMass=0   HysStiff=0
 
TABLE:  "OPTIONS - COLORS - DISPLAY"
   DeviceType=Screen   Points=Blue   LinesFrame=Blue   LinesFrmDL=Blue   LinesCable=Green   LinesTendon=Green   SpringLinks=Green   Restraints=Green   Releases=Green   Axes=Cyan   Text=Black   ShadowLines=Gray8Dark   GuideLines=Gray8Dark _
        Highlight=Red   Selection=10504778   AreaFillBot=Red   AreaFillTop=16744703   AreaFillSd=Red   AreaEdge=DarkRed   SolidF1=Red   SolidF2=Blue   SolidF3=Green   SolidF4=Yellow   SolidF5=White   SolidF6=Cyan   SolidEdge=DarkRed _
        Floor=Gray4   Background=White   BGLowLeft=White   BGLowRight=White   BGUpRight=White   Darkness=0.5
   DeviceType=Printer   Points=Gray8Dark   LinesFrame=Black   LinesFrmDL=Gray4   LinesCable=Black   LinesTendon=Black   SpringLinks=Gray8Dark   Restraints=Gray8Dark   Releases=Gray4   Axes=Black   Text=Black   ShadowLines=Gray4 _
        GuideLines=Gray4   Highlight=Black   Selection=Black   AreaFillBot=Gray4   AreaFillTop=Gray8Dark   AreaFillSd=Gray4   AreaEdge=Black   SolidF1=Gray1Light   SolidF2=Gray2   SolidF3=Gray3   SolidF4=Gray4   SolidF5=Gray5 _
        SolidF6=Gray6   SolidEdge=Black   Floor=Gray4   Background=White   BGLowLeft=White   BGLowRight=White   BGUpRight=White   Darkness=0.5
   DeviceType="Color Printer"   Points=Blue   LinesFrame=Blue   LinesFrmDL=Blue   LinesCable=Green   LinesTendon=Green   SpringLinks=Green   Restraints=Green   Releases=Green   Axes=Cyan   Text=Black   ShadowLines=Gray8Dark _
        GuideLines=Gray8Dark   Highlight=Red   Selection=10504778   AreaFillBot=Red   AreaFillTop=16744703   AreaFillSd=Red   AreaEdge=DarkRed   SolidF1=Red   SolidF2=Blue   SolidF3=Green   SolidF4=Yellow   SolidF5=White   SolidF6=Cyan _
        SolidEdge=DarkRed   Floor=Gray4   Background=White   BGLowLeft=White   BGLowRight=White   BGUpRight=White   Darkness=0.5
 
TABLE:  "OPTIONS - COLORS - OUTPUT"
   DeviceType=Screen   Contour1=13107400   Contour2=6553828   Contour3=Red   Contour4=16639   Contour5=Orange   Contour6=43775   Contour7=54527   Contour8=Yellow   Contour9=65408   Contour10=Green   Contour11=8453888   Contour12=Cyan _
        Contour13=16755200   Contour14=16733440   Contour15=Blue   Transpare=0.5   Ratio1=Cyan   Ratio2=Green   Ratio3=Yellow   Ratio4=Orange   Ratio5=Red   RatioNotD=Gray4   RatioNotC=Red   RatioVal1=0.5   RatioVal2=0.7   RatioVal3=0.9 _
        RatioVal4=1   DFillPos=Blue   DFillNeg=Red   DFillRPos=Green   DFillRNeg=Green
   DeviceType=Printer   Contour1=Black   Contour2=3158064   Contour3=4210752   Contour4=5263440   Contour5=6316128   Contour6=7368816   Contour7=Gray8Dark   Contour8=Gray7   Contour9=Gray6   Contour10=Gray5   Contour11=Gray4 _
        Contour12=Gray3   Contour13=Gray2   Contour14=Gray1Light   Contour15=White   Transpare=0   Ratio1=Gray2   Ratio2=Gray4   Ratio3=Gray8Dark   Ratio4=4210752   Ratio5=Black   RatioNotD=Gray4   RatioNotC=Black   RatioVal1=0.5 _
        RatioVal2=0.7   RatioVal3=0.9   RatioVal4=1   DFillPos=Gray8Dark   DFillNeg=Gray8Dark   DFillRPos=4210752   DFillRNeg=4210752
   DeviceType="Color Printer"   Contour1=13107400   Contour2=6553828   Contour3=Red   Contour4=16639   Contour5=Orange   Contour6=43775   Contour7=54527   Contour8=Yellow   Contour9=65408   Contour10=Green   Contour11=8453888 _
        Contour12=Cyan   Contour13=16755200   Contour14=16733440   Contour15=Blue   Transpare=0   Ratio1=Cyan   Ratio2=Green   Ratio3=Yellow   Ratio4=Orange   Ratio5=Red   RatioNotD=Gray4   RatioNotC=Red   RatioVal1=0.5   RatioVal2=0.7 _
        RatioVal3=0.9   RatioVal4=1   DFillPos=Blue   DFillNeg=Red   DFillRPos=Green   DFillRNeg=Green
 
TABLE:  "OVERWRITES - STEEL DESIGN - AISC 360-10"
   Frame=1   DesignSect="Program Determined"   FrameType="Program Determined"   Fy=0   RLLF=0   AreaRatio=0   XLMajor=0   XLMinor=0   XLLTB=0   K1Major=0   K1Minor=0   K2Major=0   K2Minor=0   KLTB=0   CmMajor=0   CmMinor=0   Cb=0 _
        B1Major=0   B1Minor=0   B2Major=0   B2Minor=0   HSSReduceT="Program Determined"   HSSWelding="Program Determined"   Omega0=0   Ry=0   Pnc=0   Pnt=0   Mn3=0   Mn2=0   Vn2=0   Vn3=0   CheckDefl="Program Determined" _
        DeflType="Program Determined"   DLRat=0   SDLAndLLRat=0   LLRat=0   TotalRat=0   NetRat=0   DLAbs=0   SDLAndLLAbs=0   LLAbs=0   TotalAbs=0   NetAbs=0   SpecCamber=0   DCLimit=0
   Frame=2   DesignSect="Program Determined"   FrameType="Program Determined"   Fy=0   RLLF=0   AreaRatio=0   XLMajor=0   XLMinor=0   XLLTB=0   K1Major=0   K1Minor=0   K2Major=0   K2Minor=0   KLTB=0   CmMajor=0   CmMinor=0   Cb=0 _
        B1Major=0   B1Minor=0   B2Major=0   B2Minor=0   HSSReduceT="Program Determined"   HSSWelding="Program Determined"   Omega0=0   Ry=0   Pnc=0   Pnt=0   Mn3=0   Mn2=0   Vn2=0   Vn3=0   CheckDefl="Program Determined" _
        DeflType="Program Determined"   DLRat=0   SDLAndLLRat=0   LLRat=0   TotalRat=0   NetRat=0   DLAbs=0   SDLAndLLAbs=0   LLAbs=0   TotalAbs=0   NetAbs=0   SpecCamber=0   DCLimit=0
   Frame=3   DesignSect="Program Determined"   FrameType="Program Determined"   Fy=0   RLLF=0   AreaRatio=0   XLMajor=0   XLMinor=0   XLLTB=0   K1Major=0   K1Minor=0   K2Major=0   K2Minor=0   KLTB=0   CmMajor=0   CmMinor=0   Cb=0 _
        B1Major=0   B1Minor=0   B2Major=0   B2Minor=0   HSSReduceT="Program Determined"   HSSWelding="Program Determined"   Omega0=0   Ry=0   Pnc=0   Pnt=0   Mn3=0   Mn2=0   Vn2=0   Vn3=0   CheckDefl="Program Determined" _
        DeflType="Program Determined"   DLRat=0   SDLAndLLRat=0   LLRat=0   TotalRat=0   NetRat=0   DLAbs=0   SDLAndLLAbs=0   LLAbs=0   TotalAbs=0   NetAbs=0   SpecCamber=0   DCLimit=0
   Frame=4   DesignSect="Program Determined"   FrameType="Program Determined"   Fy=0   RLLF=0   AreaRatio=0   XLMajor=0   XLMinor=0   XLLTB=0   K1Major=0   K1Minor=0   K2Major=0   K2Minor=0   KLTB=0   CmMajor=0   CmMinor=0   Cb=0 _
        B1Major=0   B1Minor=0   B2Major=0   B2Minor=0   HSSReduceT="Program Determined"   HSSWelding="Program Determined"   Omega0=0   Ry=0   Pnc=0   Pnt=0   Mn3=0   Mn2=0   Vn2=0   Vn3=0   CheckDefl="Program Determined" _
        DeflType="Program Determined"   DLRat=0   SDLAndLLRat=0   LLRat=0   TotalRat=0   NetRat=0   DLAbs=0   SDLAndLLAbs=0   LLAbs=0   TotalAbs=0   NetAbs=0   SpecCamber=0   DCLimit=0
   Frame=5   DesignSect="Program Determined"   FrameType="Program Determined"   Fy=0   RLLF=0   AreaRatio=0   XLMajor=0   XLMinor=0   XLLTB=0   K1Major=0   K1Minor=0   K2Major=0   K2Minor=0   KLTB=0   CmMajor=0   CmMinor=0   Cb=0 _
        B1Major=0   B1Minor=0   B2Major=0   B2Minor=0   HSSReduceT="Program Determined"   HSSWelding="Program Determined"   Omega0=0   Ry=0   Pnc=0   Pnt=0   Mn3=0   Mn2=0   Vn2=0   Vn3=0   CheckDefl="Program Determined" _
        DeflType="Program Determined"   DLRat=0   SDLAndLLRat=0   LLRat=0   TotalRat=0   NetRat=0   DLAbs=0   SDLAndLLAbs=0   LLAbs=0   TotalAbs=0   NetAbs=0   SpecCamber=0   DCLimit=0
   Frame=7   DesignSect="Program Determined"   FrameType="Program Determined"   Fy=0   RLLF=0   AreaRatio=0   XLMajor=0   XLMinor=0   XLLTB=0   K1Major=0   K1Minor=0   K2Major=0   K2Minor=0   KLTB=0   CmMajor=0   CmMinor=0   Cb=0 _
        B1Major=0   B1Minor=0   B2Major=0   B2Minor=0   HSSReduceT="Program Determined"   HSSWelding="Program Determined"   Omega0=0   Ry=0   Pnc=0   Pnt=0   Mn3=0   Mn2=0   Vn2=0   Vn3=0   CheckDefl="Program Determined" _
        DeflType="Program Determined"   DLRat=0   SDLAndLLRat=0   LLRat=0   TotalRat=0   NetRat=0   DLAbs=0   SDLAndLLAbs=0   LLAbs=0   TotalAbs=0   NetAbs=0   SpecCamber=0   DCLimit=0
   Frame=8   DesignSect="Program Determined"   FrameType="Program Determined"   Fy=0   RLLF=0   AreaRatio=0   XLMajor=0   XLMinor=0   XLLTB=0   K1Major=0   K1Minor=0   K2Major=0   K2Minor=0   KLTB=0   CmMajor=0   CmMinor=0   Cb=0 _
        B1Major=0   B1Minor=0   B2Major=0   B2Minor=0   HSSReduceT="Program Determined"   HSSWelding="Program Determined"   Omega0=0   Ry=0   Pnc=0   Pnt=0   Mn3=0   Mn2=0   Vn2=0   Vn3=0   CheckDefl="Program Determined" _
        DeflType="Program Determined"   DLRat=0   SDLAndLLRat=0   LLRat=0   TotalRat=0   NetRat=0   DLAbs=0   SDLAndLLAbs=0   LLAbs=0   TotalAbs=0   NetAbs=0   SpecCamber=0   DCLimit=0
   Frame=9   DesignSect="Program Determined"   FrameType="Program Determined"   Fy=0   RLLF=0   AreaRatio=0   XLMajor=0   XLMinor=0   XLLTB=0   K1Major=0   K1Minor=0   K2Major=0   K2Minor=0   KLTB=0   CmMajor=0   CmMinor=0   Cb=0 _
        B1Major=0   B1Minor=0   B2Major=0   B2Minor=0   HSSReduceT="Program Determined"   HSSWelding="Program Determined"   Omega0=0   Ry=0   Pnc=0   Pnt=0   Mn3=0   Mn2=0   Vn2=0   Vn3=0   CheckDefl="Program Determined" _
        DeflType="Program Determined"   DLRat=0   SDLAndLLRat=0   LLRat=0   TotalRat=0   NetRat=0   DLAbs=0   SDLAndLLAbs=0   LLAbs=0   TotalAbs=0   NetAbs=0   SpecCamber=0   DCLimit=0
   Frame=11   DesignSect="Program Determined"   FrameType="Program Determined"   Fy=0   RLLF=0   AreaRatio=0   XLMajor=0   XLMinor=0   XLLTB=0   K1Major=0   K1Minor=0   K2Major=0   K2Minor=0   KLTB=0   CmMajor=0   CmMinor=0   Cb=0 _
        B1Major=0   B1Minor=0   B2Major=0   B2Minor=0   HSSReduceT="Program Determined"   HSSWelding="Program Determined"   Omega0=0   Ry=0   Pnc=0   Pnt=0   Mn3=0   Mn2=0   Vn2=0   Vn3=0   CheckDefl="Program Determined" _
        DeflType="Program Determined"   DLRat=0   SDLAndLLRat=0   LLRat=0   TotalRat=0   NetRat=0   DLAbs=0   SDLAndLLAbs=0   LLAbs=0   TotalAbs=0   NetAbs=0   SpecCamber=0   DCLimit=0
   Frame=12   DesignSect="Program Determined"   FrameType="Program Determined"   Fy=0   RLLF=0   AreaRatio=0   XLMajor=0   XLMinor=0   XLLTB=0   K1Major=0   K1Minor=0   K2Major=0   K2Minor=0   KLTB=0   CmMajor=0   CmMinor=0   Cb=0 _
        B1Major=0   B1Minor=0   B2Major=0   B2Minor=0   HSSReduceT="Program Determined"   HSSWelding="Program Determined"   Omega0=0   Ry=0   Pnc=0   Pnt=0   Mn3=0   Mn2=0   Vn2=0   Vn3=0   CheckDefl="Program Determined" _
        DeflType="Program Determined"   DLRat=0   SDLAndLLRat=0   LLRat=0   TotalRat=0   NetRat=0   DLAbs=0   SDLAndLLAbs=0   LLAbs=0   TotalAbs=0   NetAbs=0   SpecCamber=0   DCLimit=0
   Frame=13   DesignSect="Program Determined"   FrameType="Program Determined"   Fy=0   RLLF=0   AreaRatio=0   XLMajor=0   XLMinor=0   XLLTB=0   K1Major=0   K1Minor=0   K2Major=0   K2Minor=0   KLTB=0   CmMajor=0   CmMinor=0   Cb=0 _
        B1Major=0   B1Minor=0   B2Major=0   B2Minor=0   HSSReduceT="Program Determined"   HSSWelding="Program Determined"   Omega0=0   Ry=0   Pnc=0   Pnt=0   Mn3=0   Mn2=0   Vn2=0   Vn3=0   CheckDefl="Program Determined" _
        DeflType="Program Determined"   DLRat=0   SDLAndLLRat=0   LLRat=0   TotalRat=0   NetRat=0   DLAbs=0   SDLAndLLAbs=0   LLAbs=0   TotalAbs=0   NetAbs=0   SpecCamber=0   DCLimit=0
   Frame=15   DesignSect="Program Determined"   FrameType="Program Determined"   Fy=0   RLLF=0   AreaRatio=0   XLMajor=0   XLMinor=0   XLLTB=0   K1Major=0   K1Minor=0   K2Major=0   K2Minor=0   KLTB=0   CmMajor=0   CmMinor=0   Cb=0 _
        B1Major=0   B1Minor=0   B2Major=0   B2Minor=0   HSSReduceT="Program Determined"   HSSWelding="Program Determined"   Omega0=0   Ry=0   Pnc=0   Pnt=0   Mn3=0   Mn2=0   Vn2=0   Vn3=0   CheckDefl="Program Determined" _
        DeflType="Program Determined"   DLRat=0   SDLAndLLRat=0   LLRat=0   TotalRat=0   NetRat=0   DLAbs=0   SDLAndLLAbs=0   LLAbs=0   TotalAbs=0   NetAbs=0   SpecCamber=0   DCLimit=0
   Frame=16   DesignSect="Program Determined"   FrameType="Program Determined"   Fy=0   RLLF=0   AreaRatio=0   XLMajor=0   XLMinor=0   XLLTB=0   K1Major=0   K1Minor=0   K2Major=0   K2Minor=0   KLTB=0   CmMajor=0   CmMinor=0   Cb=0 _
        B1Major=0   B1Minor=0   B2Major=0   B2Minor=0   HSSReduceT="Program Determined"   HSSWelding="Program Determined"   Omega0=0   Ry=0   Pnc=0   Pnt=0   Mn3=0   Mn2=0   Vn2=0   Vn3=0   CheckDefl="Program Determined" _
        DeflType="Program Determined"   DLRat=0   SDLAndLLRat=0   LLRat=0   TotalRat=0   NetRat=0   DLAbs=0   SDLAndLLAbs=0   LLAbs=0   TotalAbs=0   NetAbs=0   SpecCamber=0   DCLimit=0
   Frame=18   DesignSect="Program Determined"   FrameType="Program Determined"   Fy=0   RLLF=0   AreaRatio=0   XLMajor=0   XLMinor=0   XLLTB=0   K1Major=0   K1Minor=0   K2Major=0   K2Minor=0   KLTB=0   CmMajor=0   CmMinor=0   Cb=0 _
        B1Major=0   B1Minor=0   B2Major=0   B2Minor=0   HSSReduceT="Program Determined"   HSSWelding="Program Determined"   Omega0=0   Ry=0   Pnc=0   Pnt=0   Mn3=0   Mn2=0   Vn2=0   Vn3=0   CheckDefl="Program Determined" _
        DeflType="Program Determined"   DLRat=0   SDLAndLLRat=0   LLRat=0   TotalRat=0   NetRat=0   DLAbs=0   SDLAndLLAbs=0   LLAbs=0   TotalAbs=0   NetAbs=0   SpecCamber=0   DCLimit=0
   Frame=19   DesignSect="Program Determined"   FrameType="Program Determined"   Fy=0   RLLF=0   AreaRatio=0   XLMajor=0   XLMinor=0   XLLTB=0   K1Major=0   K1Minor=0   K2Major=0   K2Minor=0   KLTB=0   CmMajor=0   CmMinor=0   Cb=0 _
        B1Major=0   B1Minor=0   B2Major=0   B2Minor=0   HSSReduceT="Program Determined"   HSSWelding="Program Determined"   Omega0=0   Ry=0   Pnc=0   Pnt=0   Mn3=0   Mn2=0   Vn2=0   Vn3=0   CheckDefl="Program Determined" _
        DeflType="Program Determined"   DLRat=0   SDLAndLLRat=0   LLRat=0   TotalRat=0   NetRat=0   DLAbs=0   SDLAndLLAbs=0   LLAbs=0   TotalAbs=0   NetAbs=0   SpecCamber=0   DCLimit=0
   Frame=21   DesignSect="Program Determined"   FrameType="Program Determined"   Fy=0   RLLF=0   AreaRatio=0   XLMajor=0   XLMinor=0   XLLTB=0   K1Major=0   K1Minor=0   K2Major=0   K2Minor=0   KLTB=0   CmMajor=0   CmMinor=0   Cb=0 _
        B1Major=0   B1Minor=0   B2Major=0   B2Minor=0   HSSReduceT="Program Determined"   HSSWelding="Program Determined"   Omega0=0   Ry=0   Pnc=0   Pnt=0   Mn3=0   Mn2=0   Vn2=0   Vn3=0   CheckDefl="Program Determined" _
        DeflType="Program Determined"   DLRat=0   SDLAndLLRat=0   LLRat=0   TotalRat=0   NetRat=0   DLAbs=0   SDLAndLLAbs=0   LLAbs=0   TotalAbs=0   NetAbs=0   SpecCamber=0   DCLimit=0
   Frame=48   DesignSect="Program Determined"   FrameType="Program Determined"   Fy=0   RLLF=0   AreaRatio=0   XLMajor=0   XLMinor=0   XLLTB=0   K1Major=0   K1Minor=0   K2Major=0   K2Minor=0   KLTB=0   CmMajor=0   CmMinor=0   Cb=0 _
        B1Major=0   B1Minor=0   B2Major=0   B2Minor=0   HSSReduceT="Program Determined"   HSSWelding="Program Determined"   Omega0=0   Ry=0   Pnc=0   Pnt=0   Mn3=0   Mn2=0   Vn2=0   Vn3=0   CheckDefl="Program Determined" _
        DeflType="Program Determined"   DLRat=0   SDLAndLLRat=0   LLRat=0   TotalRat=0   NetRat=0   DLAbs=0   SDLAndLLAbs=0   LLAbs=0   TotalAbs=0   NetAbs=0   SpecCamber=0   DCLimit=0
   Frame=49   DesignSect="Program Determined"   FrameType="Program Determined"   Fy=0   RLLF=0   AreaRatio=0   XLMajor=0   XLMinor=0   XLLTB=0   K1Major=0   K1Minor=0   K2Major=0   K2Minor=0   KLTB=0   CmMajor=0   CmMinor=0   Cb=0 _
        B1Major=0   B1Minor=0   B2Major=0   B2Minor=0   HSSReduceT="Program Determined"   HSSWelding="Program Determined"   Omega0=0   Ry=0   Pnc=0   Pnt=0   Mn3=0   Mn2=0   Vn2=0   Vn3=0   CheckDefl="Program Determined" _
        DeflType="Program Determined"   DLRat=0   SDLAndLLRat=0   LLRat=0   TotalRat=0   NetRat=0   DLAbs=0   SDLAndLLAbs=0   LLAbs=0   TotalAbs=0   NetAbs=0   SpecCamber=0   DCLimit=0
   Frame=50   DesignSect="Program Determined"   FrameType="Program Determined"   Fy=0   RLLF=0   AreaRatio=0   XLMajor=0   XLMinor=0   XLLTB=0   K1Major=0   K1Minor=0   K2Major=0   K2Minor=0   KLTB=0   CmMajor=0   CmMinor=0   Cb=0 _
        B1Major=0   B1Minor=0   B2Major=0   B2Minor=0   HSSReduceT="Program Determined"   HSSWelding="Program Determined"   Omega0=0   Ry=0   Pnc=0   Pnt=0   Mn3=0   Mn2=0   Vn2=0   Vn3=0   CheckDefl="Program Determined" _
        DeflType="Program Determined"   DLRat=0   SDLAndLLRat=0   LLRat=0   TotalRat=0   NetRat=0   DLAbs=0   SDLAndLLAbs=0   LLAbs=0   TotalAbs=0   NetAbs=0   SpecCamber=0   DCLimit=0
   Frame=51   DesignSect="Program Determined"   FrameType="Program Determined"   Fy=0   RLLF=0   AreaRatio=0   XLMajor=0   XLMinor=0   XLLTB=0   K1Major=0   K1Minor=0   K2Major=0   K2Minor=0   KLTB=0   CmMajor=0   CmMinor=0   Cb=0 _
        B1Major=0   B1Minor=0   B2Major=0   B2Minor=0   HSSReduceT="Program Determined"   HSSWelding="Program Determined"   Omega0=0   Ry=0   Pnc=0   Pnt=0   Mn3=0   Mn2=0   Vn2=0   Vn3=0   CheckDefl="Program Determined" _
        DeflType="Program Determined"   DLRat=0   SDLAndLLRat=0   LLRat=0   TotalRat=0   NetRat=0   DLAbs=0   SDLAndLLAbs=0   LLAbs=0   TotalAbs=0   NetAbs=0   SpecCamber=0   DCLimit=0
# ... 96 like lines cut
 
TABLE:  "PREFERENCES - ALUMINUM DESIGN - AA-ASD 2000"
   THDesign=Envelopes   FrameType="Moment Frame"   SRatioLimit=1   MaxIter=1   LatFact=1.33333333333333   UseLatFact=No   Bridge=No
 
TABLE:  "PREFERENCES - COLD FORMED DESIGN - AISI-ASD96"
   THDesign=Envelopes   FrameType="Braced Frame"   SRatioLimit=1   MaxIter=1   OmegaBS=1.67   OmegaBUS=1.67   OmegaBLTB=1.67   OmegaVS=1.67   OmegaVNS=1.5   OmegaT=1.67   OmegaC=1.8
 
TABLE:  "PREFERENCES - CONCRETE DESIGN - ACI 318-14"
   THDesign=Envelopes   NumCurves=24   NumPoints=11   MinEccen=Yes   PatLLF=0.75   UFLimit=0.95   SeisCat=D   Rho=1   Sds=0.5   PhiT=0.9   PhiCTied=0.65   PhiCSpiral=0.75   PhiV=0.75   PhiVSeismic=0.6   PhiVJoint=0.85
 
TABLE:  "PREFERENCES - DIMENSIONAL"
   MergeTol=0.00833333333333333   FineGrid=1   Nudge=1   SelectTol=3   SnapTol=12   SLineThick=2   PLineThick=4   MaxFont=8   MinFont=3   AutoZoom=10   ShrinkFact=70   TextFileLen=240
 
TABLE:  "PREFERENCES - STEEL DESIGN - AISC 360-10"
   THDesign=Envelopes   FrameType=SMF   PatLLF=0.75   SRatioLimit=0.95   MaxIter=1   SDC=D   SeisCode=Yes   SeisLoad=Yes   ImpFactor=1   SystemRho=1   SystemSds=0.5   SystemR=8   SystemCd=5.5   Omega0=3   Provision=LRFD _
        AMethod="Direct Analysis"   SOMethod="General 2nd Order"   SRMethod="Tau-b Fixed"   NLCoeff=0.002   PhiB=0.9   PhiC=0.9   PhiTY=0.9   PhiTF=0.75   PhiV=0.9   PhiVRolledI=1   PhiVT=0.9   PlugWeld=Yes   HSSWelding=ERW   HSSReduceT=No _
        CheckDefl=No   DLRat=120   SDLAndLLRat=120   LLRat=360   TotalRat=240   NetRat=240
 
TABLE:  "PROGRAM CONTROL"
   ProgramName=SAP2000   Version=20.2.0   CurrUnits="Kip, ft, F"   SteelCode="AISC 360-10"   ConcCode="ACI 318-14"   AlumCode="AA-ASD 2000"   ColdCode=AISI-ASD96   RegenHinge=Yes
 
TABLE:  "PROJECT INFORMATION"
   Item="Company Name"
   Item="Client Name"
   Item="Project Name"
   Item="Project Number"
   Item="Model Name"
   Item="Model Description"
   Item="Revision Number"
   Item="Frame Type"
   Item=Engineer
   Item=Checker
   Item=Supervisor
   Item="Issue Code"
   Item="Design Code"
 
TABLE:  "REBAR SIZES"
   RebarID=#2   Area=0.000347222222222222   Diameter=0.0208333333333333
   RebarID=#3   Area=0.000763888884749677   Diameter=0.03125
   RebarID=#4   Area=0.00138888890958495   Diameter=0.0416666666666667
   RebarID=#5   Area=0.00215277779433462   Diameter=0.0520833333333333
   RebarID=#6   Area=0.00305555553899871   Diameter=0.0625
   RebarID=#7   Area=0.00416666683223512   Diameter=0.0729166666666667
   RebarID=#8   Area=0.00548611126012272   Diameter=0.0833333333333333
   RebarID=#9   Area=0.00694444444444444   Diameter=0.0940000017484029
   RebarID=#10   Area=0.00881944431198968   Diameter=0.105833331743876
   RebarID=#11   Area=0.010833332935969   Diameter=0.11749999721845
   RebarID=#14   Area=0.015625   Diameter=0.141083329916
   RebarID=#18   Area=0.0277777777777778   Diameter=0.188083330790202
   RebarID=10M   Area=0.00107639107025332   Diameter=0.0370734930038452
   RebarID=15M   Area=0.00215278214050664   Diameter=0.0524934381246567
   RebarID=20M   Area=0.00322917331424024   Diameter=0.063976377248764
   RebarID=25M   Area=0.00538195545474688   Diameter=0.0826771706342697
   RebarID=30M   Area=0.00753473738829295   Diameter=0.0980971157550812
   RebarID=35M   Area=0.0107639109094938   Diameter=0.117125988006592
   RebarID=45M   Area=0.0161458667781618   Diameter=0.143372704585393
   RebarID=55M   Area=0.0269097768598133   Diameter=0.185039381186167
   RebarID=6d   Area=0.000304618669259879   Diameter=0.019685039917628
   RebarID=8d   Area=0.000541424689193567   Diameter=0.0262467190623283
   RebarID=10d   Area=0.000844966982387834   Diameter=0.0328083982070287
   RebarID=12d   Area=0.00121632197664844   Diameter=0.0393700798352559
   RebarID=14d   Area=0.00165764232062631   Diameter=0.0459317614634832
   RebarID=16d   Area=0.00216354615986347   Diameter=0.0524934381246567
   RebarID=20d   Area=0.00337986792955134   Diameter=0.0656167964140574
   RebarID=25d   Area=0.00528508010837767   Diameter=0.0820209980010986
   RebarID=26d   Area=0.00571563674343957   Diameter=0.0853018363316854
   RebarID=28d   Area=0.00663056928250525   Diameter=0.0918635229269663
   RebarID=N12   Area=0.00121632197664844   Diameter=0.0393700798352559
   RebarID=N16   Area=0.00216354615986347   Diameter=0.0524934381246567
   RebarID=N20   Area=0.00337986792955134   Diameter=0.0656167964140574
   RebarID=N24   Area=0.00486528790659375   Diameter=0.0787401596705119
   RebarID=N28   Area=0.00663056928250525   Diameter=0.0918635229269663
   RebarID=N32   Area=0.00865418463945389   Diameter=0.104986876249313
   RebarID=N36   Area=0.0109791888131036   Diameter=0.118110239505768
 
TABLE:  "SOLID PROPERTY DEFINITIONS"
   SolidProp=Solid1   Material=4000Psi   MatAngleA=0   MatAngleB=0   MatAngleC=0   InComp=Yes   Color=Red
 
END TABLE DATA
