File E:\SEM 2\SUMMER PROJECTS\DesCon\Assignments\A1 Q.4.$2k was saved on m/d/yy at h:mm:ss
 
TABLE:  "ACTIVE DEGREES OF FREEDOM"
   UX=Yes   UY=Yes   UZ=Yes   RX=Yes   RY=Yes   RZ=Yes
 
TABLE:  "ANALYSIS OPTIONS"
   Solver=Advanced   SolverProc=Auto   Force32Bit=No   StiffCase=None   GeomMod=None   HingeOpt="In Elements"
 
TABLE:  "AREA AUTO MESH ASSIGNMENTS"
   Area=1   MeshType="Points On Edges"   MeshGroup=ALL   PtsFromLine=Yes   PtsFromPt=Yes   LocalEdge=No   LocalFace=No   SuppEdge=No   SuppFace=No   SubMesh=No
   Area=2   MeshType="Points On Edges"   MeshGroup=ALL   PtsFromLine=Yes   PtsFromPt=Yes   LocalEdge=No   LocalFace=No   SuppEdge=No   SuppFace=No   SubMesh=No
   Area=3   MeshType="Points On Edges"   MeshGroup=ALL   PtsFromLine=Yes   PtsFromPt=Yes   LocalEdge=No   LocalFace=No   SuppEdge=No   SuppFace=No   SubMesh=No
   Area=4   MeshType="Points On Edges"   MeshGroup=ALL   PtsFromLine=Yes   PtsFromPt=Yes   LocalEdge=No   LocalFace=No   SuppEdge=No   SuppFace=No   SubMesh=No
   Area=5   MeshType="Points On Edges"   MeshGroup=ALL   PtsFromLine=Yes   PtsFromPt=Yes   LocalEdge=No   LocalFace=No   SuppEdge=No   SuppFace=No   SubMesh=No
   Area=6   MeshType="Points On Edges"   MeshGroup=ALL   PtsFromLine=Yes   PtsFromPt=Yes   LocalEdge=No   LocalFace=No   SuppEdge=No   SuppFace=No   SubMesh=No
 
TABLE:  "AREA LOADS - SURFACE PRESSURE"
   Area=1   LoadPat=WIND   Face=Top   Pressure=1500   JtPattern=None
   Area=2   LoadPat=WIND   Face=Top   Pressure=1500   JtPattern=None
   Area=3   LoadPat=WIND   Face=Top   Pressure=1500   JtPattern=None
   Area=4   LoadPat=WIND   Face=Top   Pressure=-6   JtPattern=None
   Area=5   LoadPat=WIND   Face=Top   Pressure=-6   JtPattern=None
   Area=6   LoadPat=WIND   Face=Top   Pressure=-6   JtPattern=None
 
TABLE:  "AREA LOADS - UNIFORM"
   Area=1   LoadPat=DEAD   CoordSys=GLOBAL   Dir=Gravity   UnifLoad=29.5918177149643
   Area=2   LoadPat=DEAD   CoordSys=GLOBAL   Dir=Gravity   UnifLoad=29.5918177149643
   Area=3   LoadPat=DEAD   CoordSys=GLOBAL   Dir=Gravity   UnifLoad=29.5918177149643
   Area=4   LoadPat=DEAD   CoordSys=GLOBAL   Dir=Gravity   UnifLoad=29.5918177149643
   Area=5   LoadPat=DEAD   CoordSys=GLOBAL   Dir=Gravity   UnifLoad=29.5918177149643
   Area=6   LoadPat=DEAD   CoordSys=GLOBAL   Dir=Gravity   UnifLoad=29.5918177149643
 
TABLE:  "AREA SECTION ASSIGNMENTS"
   Area=1   Section=roof   MatProp=Default
   Area=2   Section=roof   MatProp=Default
   Area=3   Section=roof   MatProp=Default
   Area=4   Section=roof   MatProp=Default
   Area=5   Section=roof   MatProp=Default
   Area=6   Section=roof   MatProp=Default
 
TABLE:  "AREA SECTION PROPERTIES"
   Section=roof   Material=4000Psi   MatAngle=0   AreaType=Shell   Type=Shell-Thin   DrillDOF=Yes   Thickness=0.416666666666667   BendThick=0.416666666666667   Color=Red   F11Mod=1   F22Mod=1   F12Mod=1   M11Mod=1   M22Mod=1   M12Mod=1 _
        V13Mod=1   V23Mod=1   MMod=1   WMod=1   Notes="Added 1/1/2019 1:51:38 AM"
 
TABLE:  "AREA SECTION PROPERTY DESIGN PARAMETERS"
   Section=roof   RebarMat=None   RebarOpt=Default
 
TABLE:  "AREA SECTION PROPERTY - TIME DEPENDENT"
   Section=roof   TypeSize=Auto   AutoSFSize=1
 
TABLE:  "AREA STIFFNESS MODIFIERS"
   Area=1   f11=1   f22=0   f12=1   m11=1   m22=1   m12=1   v13=1   v23=1   MassMod=1   WeightMod=1
   Area=2   f11=1   f22=0   f12=1   m11=1   m22=1   m12=1   v13=1   v23=1   MassMod=1   WeightMod=1
   Area=3   f11=1   f22=0   f12=1   m11=1   m22=1   m12=1   v13=1   v23=1   MassMod=1   WeightMod=1
   Area=4   f11=1   f22=0   f12=1   m11=1   m22=1   m12=1   v13=1   v23=1   MassMod=1   WeightMod=1
   Area=5   f11=1   f22=0   f12=1   m11=1   m22=1   m12=1   v13=1   v23=1   MassMod=1   WeightMod=1
   Area=6   f11=1   f22=0   f12=1   m11=1   m22=1   m12=1   v13=1   v23=1   MassMod=1   WeightMod=1
 
TABLE:  "AUTO WAVE 3 - WAVE CHARACTERISTICS - GENERAL"
   WaveChar=Default   WaveType="From Theory"   KinFactor=1   SWaterDepth=1800   WaveHeight=720   WavePeriod=12   WaveTheory=Linear
 
TABLE:  "CASE - MODAL 1 - GENERAL"
   Case=MODAL   ModeType=Eigen   MaxNumModes=12   MinNumModes=1   EigenShift=0   EigenCutoff=0   EigenTol=1E-09   AutoShift=Yes
 
TABLE:  "CASE - STATIC 1 - LOAD ASSIGNMENTS"
   Case=DEAD   LoadType="Load pattern"   LoadName=DEAD   LoadSF=1
   Case=LIVE   LoadType="Load pattern"   LoadName=LIVE   LoadSF=1
   Case=WIND   LoadType="Load pattern"   LoadName=WIND   LoadSF=1
 
TABLE:  "COMBINATION DEFINITIONS"
   ComboName=UDSTL1   ComboType="Linear Add"   AutoDesign=No   CaseName=DEAD   ScaleFactor=1.4   SteelDesign=Strength   ConcDesign=None   AlumDesign=None   ColdDesign=None   GUID=648ab863-6591-4cf1-bc52-3ec00bf021de   Notes="Dead Only; Strength"
   ComboName=UDSTL2   ComboType="Linear Add"   AutoDesign=No   CaseName=DEAD   ScaleFactor=1.2   SteelDesign=Strength   ConcDesign=None   AlumDesign=None   ColdDesign=None   GUID=611da249-eaaf-4d3e-9362-e928643dba6b   Notes="Dead + Live; Strength"
   ComboName=UDSTL2   CaseName=LIVE   ScaleFactor=1.6
   ComboName=UDSTL3   ComboType="Linear Add"   AutoDesign=No   CaseName=DEAD   ScaleFactor=1.2   SteelDesign=Strength   ConcDesign=None   AlumDesign=None   ColdDesign=None   GUID=559b62bc-7cd6-490a-9cc4-9f52cf6eb893
   ComboName=UDSTL3   CaseName=LIVE   ScaleFactor=1
   ComboName=UDSTL3   CaseName=WIND   ScaleFactor=1.6
   ComboName=UDSTL4   ComboType="Linear Add"   AutoDesign=No   CaseName=DEAD   ScaleFactor=1.2   SteelDesign=Strength   ConcDesign=None   AlumDesign=None   ColdDesign=None   GUID=4c556b7d-828a-4d6e-9155-934ec5beae5d
   ComboName=UDSTL4   CaseName=LIVE   ScaleFactor=1
   ComboName=UDSTL4   CaseName=WIND   ScaleFactor=-1.6
   ComboName=UDSTL5   ComboType="Linear Add"   AutoDesign=No   CaseName=DEAD   ScaleFactor=0.9   SteelDesign=Strength   ConcDesign=None   AlumDesign=None   ColdDesign=None   GUID=30bbf78a-70ad-4745-97fc-24d33e1ad40f   Notes="Dead (min) + Wind; Strength"
   ComboName=UDSTL5   CaseName=WIND   ScaleFactor=1.6
   ComboName=UDSTL6   ComboType="Linear Add"   AutoDesign=No   CaseName=DEAD   ScaleFactor=0.9   SteelDesign=Strength   ConcDesign=None   AlumDesign=None   ColdDesign=None   GUID=c9516c95-83c1-45ad-9ee9-74491d9b4fe5   Notes="Dead (min) - Wind; Strength"
   ComboName=UDSTL6   CaseName=WIND   ScaleFactor=-1.6
 
TABLE:  "CONNECTIVITY - AREA"
   Area=1   Joint1=2   Joint2=22   Joint3=32   Joint4=12   GUID=d096b9f1-1b87-4f8b-9b82-b088d7317c37
   Area=2   Joint1=22   Joint2=38   Joint3=48   Joint4=32   GUID=da4a9369-6d29-457b-8a2f-46d64dba1c71
   Area=3   Joint1=38   Joint2=54   Joint3=64   Joint4=48   GUID=899e9738-01bd-4e58-8b6d-cd162cec37cb
   Area=4   Joint1=12   Joint2=32   Joint3=24   Joint4=4   GUID=b8e25e41-15ae-4f0d-9178-3b999dfc75bb
   Area=5   Joint1=32   Joint2=48   Joint3=40   Joint4=24   GUID=a758eb4c-a3cd-4761-b119-767b3e5e21a2
   Area=6   Joint1=48   Joint2=64   Joint3=56   Joint4=40   GUID=6721f1a4-4a78-4b97-a7e5-d1d119693121
 
TABLE:  "CONNECTIVITY - FRAME"
   Frame=1   JointI=1   JointJ=2   IsCurved=No   GUID=f0562a26-835a-4761-adac-391961ca0759
   Frame=2   JointI=3   JointJ=4   IsCurved=No   GUID=037d3228-4e9c-43a5-bf70-96b505f6290e
   Frame=3   JointI=5   JointJ=6   IsCurved=No   GUID=f633ed50-0356-4344-8f2c-2ef75f8cd95a
   Frame=7   JointI=4   JointJ=7   IsCurved=No   GUID=a3de7059-f42d-4eac-8751-bc2fb3508bc9
   Frame=8   JointI=7   JointJ=8   IsCurved=No   GUID=403ee358-22e7-4644-afb9-9ccdf4405526
   Frame=9   JointI=8   JointJ=9   IsCurved=No   GUID=2e2cc839-7d22-44be-86a0-1111289e73d4
   Frame=10   JointI=9   JointJ=10   IsCurved=No   GUID=02528c77-b207-4f89-b4f7-18b4c9c25a66
   Frame=11   JointI=10   JointJ=11   IsCurved=No   GUID=6d5a299e-8ca6-4408-99fa-43121f9fca20
   Frame=12   JointI=11   JointJ=12   IsCurved=No   GUID=7b16c054-f29b-4be3-b69a-2fdfb62a5ff3
   Frame=18   JointI=11   JointJ=17   IsCurved=No   GUID=dcb2884d-dc5c-4374-8c0e-5028bb63c9db
   Frame=19   JointI=17   JointJ=18   IsCurved=No   GUID=f89082a6-ffde-481a-a95d-e8dbd5afad77
   Frame=20   JointI=18   JointJ=19   IsCurved=No   GUID=def1c7cb-3dee-4679-ab7b-82845a93e07d
   Frame=21   JointI=19   JointJ=20   IsCurved=No   GUID=124446f9-8d03-413a-b8b9-315d64c8b4a5
   Frame=22   JointI=20   JointJ=2   IsCurved=No   GUID=6ac93cb2-f34d-4f3d-89fc-4e35f08bcd53
   Frame=23   JointI=2   JointJ=12   IsCurved=No   GUID=8d5077dd-6b41-4e3a-88d9-2e107e8eef9a
   Frame=24   JointI=12   JointJ=4   IsCurved=No   GUID=0061931c-885a-429d-83d4-6afdfcb90776
   Frame=25   JointI=21   JointJ=22   IsCurved=No   GUID=3a526dd9-cbbf-4572-a82a-bae70d422189
   Frame=26   JointI=23   JointJ=24   IsCurved=No   GUID=522372f4-87ea-4ead-862a-30342dd117d3
   Frame=27   JointI=25   JointJ=26   IsCurved=No   GUID=cae0bdb4-857e-4fae-8387-20986626b053
   Frame=28   JointI=24   JointJ=27   IsCurved=No   GUID=b8150c6b-c9ac-423c-993e-cd8442ff37ee
   Frame=29   JointI=27   JointJ=28   IsCurved=No   GUID=0d4eef6e-d326-43f3-8d1e-00eed7c758a5
   Frame=30   JointI=28   JointJ=29   IsCurved=No   GUID=76f90a50-8e04-446a-8ffc-ad4062b4df02
   Frame=31   JointI=29   JointJ=30   IsCurved=No   GUID=e02e0768-9123-40c3-b5b8-c927b09b6869
   Frame=32   JointI=30   JointJ=31   IsCurved=No   GUID=9d00b71e-c1f9-4b9f-84cb-78127b1d7926
   Frame=33   JointI=31   JointJ=32   IsCurved=No   GUID=7e32da35-eeca-4637-94bc-d6f062c7f97a
   Frame=34   JointI=31   JointJ=33   IsCurved=No   GUID=538422aa-cde1-4407-9911-1d25c8bd0a49
   Frame=35   JointI=33   JointJ=34   IsCurved=No   GUID=77433baa-93bc-480e-a824-7abe980fb1f0
   Frame=36   JointI=34   JointJ=35   IsCurved=No   GUID=8fd66261-6dfc-4042-8094-3c4c77ea044b
   Frame=37   JointI=35   JointJ=36   IsCurved=No   GUID=5b000e8b-e5a5-4419-b574-52cd1c40e007
   Frame=38   JointI=36   JointJ=22   IsCurved=No   GUID=05fe8e15-ff01-42af-9eb5-325a2ba64530
   Frame=39   JointI=22   JointJ=32   IsCurved=No   GUID=2a95eee7-e256-4734-b090-6f701ec92798
   Frame=40   JointI=32   JointJ=24   IsCurved=No   GUID=e0b6106c-1c67-40b7-9606-4240095de6f7
   Frame=41   JointI=37   JointJ=38   IsCurved=No   GUID=e64926ab-84f1-4a56-9e2e-893005aa910c
   Frame=42   JointI=39   JointJ=40   IsCurved=No   GUID=850c8eb2-8649-4a84-9f2a-1135e0767928
   Frame=43   JointI=41   JointJ=42   IsCurved=No   GUID=2894bae7-4b5e-4de4-bbde-db569e39e009
   Frame=44   JointI=40   JointJ=43   IsCurved=No   GUID=4838fbdc-bc69-498b-aeb0-92c8e1836fcd
   Frame=45   JointI=43   JointJ=44   IsCurved=No   GUID=e30096c4-257f-412b-a5de-51caa151f460
   Frame=46   JointI=44   JointJ=45   IsCurved=No   GUID=0d061091-af9a-418a-a42f-68be5c4a4cbe
   Frame=47   JointI=45   JointJ=46   IsCurved=No   GUID=73d14fe6-0280-4b3b-adb8-94d3bb8cd4c1
   Frame=48   JointI=46   JointJ=47   IsCurved=No   GUID=f4b31323-4871-4c44-b7e7-d23f383bd938
   Frame=49   JointI=47   JointJ=48   IsCurved=No   GUID=8171c9bc-d59e-4fc9-a851-c46d9b5b692f
   Frame=50   JointI=47   JointJ=49   IsCurved=No   GUID=e3acb5c6-6ee8-405e-86d0-cc82909f8d06
   Frame=51   JointI=49   JointJ=50   IsCurved=No   GUID=ea0d6629-50eb-46d3-81c2-41d2a52703c6
   Frame=52   JointI=50   JointJ=51   IsCurved=No   GUID=073dc635-fac4-46cb-a962-5347d2d31fed
   Frame=53   JointI=51   JointJ=52   IsCurved=No   GUID=566cb5a7-48d4-476c-8cd2-cde969e0ec46
   Frame=54   JointI=52   JointJ=38   IsCurved=No   GUID=3f27e499-e32e-4a99-9801-a29c1012ad36
   Frame=55   JointI=38   JointJ=48   IsCurved=No   GUID=dbc74871-9c2f-4e6c-b01d-dca51a29a5df
   Frame=56   JointI=48   JointJ=40   IsCurved=No   GUID=9ee4de97-5b1b-4b82-9104-9691867c9bb0
   Frame=57   JointI=53   JointJ=54   IsCurved=No   GUID=dd15f077-d0ad-436f-af09-e8032d89640b
   Frame=58   JointI=55   JointJ=56   IsCurved=No   GUID=2733d8a4-9f7f-420b-b0bb-5832fc71919f
   Frame=59   JointI=57   JointJ=58   IsCurved=No   GUID=ed0e4ff0-dd69-46a2-b00b-67394f83c011
   Frame=60   JointI=56   JointJ=59   IsCurved=No   GUID=022cae62-3425-471a-8ba9-3e5f69616602
   Frame=61   JointI=59   JointJ=60   IsCurved=No   GUID=62df337b-e6a3-43c2-b56d-75806ef936f1
   Frame=62   JointI=60   JointJ=61   IsCurved=No   GUID=7c61103a-ffe6-4bd2-96da-22639f0d702b
   Frame=63   JointI=61   JointJ=62   IsCurved=No   GUID=99371df5-ad9a-4a24-9169-ade77d7b6141
   Frame=64   JointI=62   JointJ=63   IsCurved=No   GUID=be9a9978-fc80-4841-b92d-970fa4eba838
   Frame=65   JointI=63   JointJ=64   IsCurved=No   GUID=ba506b14-4498-490d-a2ec-d31c096f958b
   Frame=66   JointI=63   JointJ=65   IsCurved=No   GUID=35edd638-c0cd-4932-b4dc-f3c36f554952
   Frame=67   JointI=65   JointJ=66   IsCurved=No   GUID=fad3df1d-67a7-4af7-ac3c-237317e9c987
   Frame=68   JointI=66   JointJ=67   IsCurved=No   GUID=7cf1e872-0a9e-4224-ada5-1a1f835522b6
   Frame=69   JointI=67   JointJ=68   IsCurved=No   GUID=8d75153c-d69f-4756-ad36-349815af8955
   Frame=70   JointI=68   JointJ=54   IsCurved=No   GUID=831117a3-baf3-42f9-8127-ef0233eb8e8b
   Frame=71   JointI=54   JointJ=64   IsCurved=No   GUID=2bd28577-e58b-4874-89aa-14e112719977
   Frame=72   JointI=64   JointJ=56   IsCurved=No   GUID=11ba87dd-2890-493b-a571-e18af8234f70
   Frame=73   JointI=2   JointJ=54   IsCurved=No   GUID=8baf5efd-5099-4e9f-bfae-31be81de27c2
   Frame=75   JointI=5   JointJ=57   IsCurved=No   GUID=5318abc8-65af-448c-9e16-14d9285aad4d
   Frame=76   JointI=4   JointJ=56   IsCurved=No   GUID=42fcd6e9-6710-4862-8d49-83785bb31fdf
   Frame=77   JointI=6   JointJ=58   IsCurved=No   GUID=d00453ce-48af-4690-9138-d4d45ad8a9c7
 
TABLE:  "COORDINATE SYSTEMS"
   Name=GLOBAL   Type=Cartesian   X=0   Y=0   Z=0   AboutZ=0   AboutY=0   AboutX=0
 
TABLE:  "DATABASE DOCUMENTATION"
 
TABLE:  "DATABASE FORMAT TYPES"
   UnitsCurr=Yes   OverrideE=No
 
TABLE:  "FRAME AUTO MESH ASSIGNMENTS"
   Frame=1   AutoMesh=Yes   AtJoints=Yes   AtFrames=No   NumSegments=0   MaxLength=0   MaxDegrees=0
   Frame=2   AutoMesh=Yes   AtJoints=Yes   AtFrames=No   NumSegments=0   MaxLength=0   MaxDegrees=0
   Frame=3   AutoMesh=Yes   AtJoints=Yes   AtFrames=No   NumSegments=0   MaxLength=0   MaxDegrees=0
   Frame=7   AutoMesh=Yes   AtJoints=Yes   AtFrames=No   NumSegments=0   MaxLength=0   MaxDegrees=0
   Frame=8   AutoMesh=Yes   AtJoints=Yes   AtFrames=No   NumSegments=0   MaxLength=0   MaxDegrees=0
   Frame=9   AutoMesh=Yes   AtJoints=Yes   AtFrames=No   NumSegments=0   MaxLength=0   MaxDegrees=0
   Frame=10   AutoMesh=Yes   AtJoints=Yes   AtFrames=No   NumSegments=0   MaxLength=0   MaxDegrees=0
   Frame=11   AutoMesh=Yes   AtJoints=Yes   AtFrames=No   NumSegments=0   MaxLength=0   MaxDegrees=0
   Frame=12   AutoMesh=Yes   AtJoints=Yes   AtFrames=No   NumSegments=0   MaxLength=0   MaxDegrees=0
   Frame=18   AutoMesh=Yes   AtJoints=Yes   AtFrames=No   NumSegments=0   MaxLength=0   MaxDegrees=0
   Frame=19   AutoMesh=Yes   AtJoints=Yes   AtFrames=No   NumSegments=0   MaxLength=0   MaxDegrees=0
   Frame=20   AutoMesh=Yes   AtJoints=Yes   AtFrames=No   NumSegments=0   MaxLength=0   MaxDegrees=0
   Frame=21   AutoMesh=Yes   AtJoints=Yes   AtFrames=No   NumSegments=0   MaxLength=0   MaxDegrees=0
   Frame=22   AutoMesh=Yes   AtJoints=Yes   AtFrames=No   NumSegments=0   MaxLength=0   MaxDegrees=0
   Frame=23   AutoMesh=Yes   AtJoints=Yes   AtFrames=No   NumSegments=0   MaxLength=0   MaxDegrees=0
   Frame=24   AutoMesh=Yes   AtJoints=Yes   AtFrames=No   NumSegments=0   MaxLength=0   MaxDegrees=0
   Frame=25   AutoMesh=Yes   AtJoints=Yes   AtFrames=No   NumSegments=0   MaxLength=0   MaxDegrees=0
   Frame=26   AutoMesh=Yes   AtJoints=Yes   AtFrames=No   NumSegments=0   MaxLength=0   MaxDegrees=0
   Frame=27   AutoMesh=Yes   AtJoints=Yes   AtFrames=No   NumSegments=0   MaxLength=0   MaxDegrees=0
   Frame=28   AutoMesh=Yes   AtJoints=Yes   AtFrames=No   NumSegments=0   MaxLength=0   MaxDegrees=0
# ... 44 like lines cut
   Frame=73   AutoMesh=Yes   AtJoints=Yes   AtFrames=Yes   NumSegments=0   MaxLength=0   MaxDegrees=0
   Frame=75   AutoMesh=Yes   AtJoints=Yes   AtFrames=Yes   NumSegments=0   MaxLength=0   MaxDegrees=0
   Frame=76   AutoMesh=Yes   AtJoints=Yes   AtFrames=Yes   NumSegments=0   MaxLength=0   MaxDegrees=0
   Frame=77   AutoMesh=Yes   AtJoints=Yes   AtFrames=Yes   NumSegments=0   MaxLength=0   MaxDegrees=0
 
TABLE:  "FRAME DESIGN PROCEDURES"
   Frame=1   DesignProc="From Material"
   Frame=2   DesignProc="From Material"
   Frame=3   DesignProc="From Material"
   Frame=7   DesignProc="From Material"
   Frame=8   DesignProc="From Material"
   Frame=9   DesignProc="From Material"
   Frame=10   DesignProc="From Material"
   Frame=11   DesignProc="From Material"
   Frame=12   DesignProc="From Material"
   Frame=18   DesignProc="From Material"
   Frame=19   DesignProc="From Material"
   Frame=20   DesignProc="From Material"
   Frame=21   DesignProc="From Material"
   Frame=22   DesignProc="From Material"
   Frame=23   DesignProc="From Material"
   Frame=24   DesignProc="From Material"
   Frame=25   DesignProc="From Material"
   Frame=26   DesignProc="From Material"
   Frame=27   DesignProc="From Material"
   Frame=28   DesignProc="From Material"
# ... 48 like lines cut
 
TABLE:  "FRAME LOAD TRANSFER OPTIONS"
   Frame=1   Transfer=Yes
   Frame=2   Transfer=Yes
   Frame=3   Transfer=Yes
   Frame=7   Transfer=Yes
   Frame=8   Transfer=Yes
   Frame=9   Transfer=Yes
   Frame=10   Transfer=Yes
   Frame=11   Transfer=Yes
   Frame=12   Transfer=Yes
   Frame=18   Transfer=Yes
   Frame=19   Transfer=Yes
   Frame=20   Transfer=Yes
   Frame=21   Transfer=Yes
   Frame=22   Transfer=Yes
   Frame=23   Transfer=Yes
   Frame=24   Transfer=Yes
   Frame=25   Transfer=Yes
   Frame=26   Transfer=Yes
   Frame=27   Transfer=Yes
   Frame=28   Transfer=Yes
# ... 48 like lines cut
 
TABLE:  "FRAME OUTPUT STATION ASSIGNMENTS"
   Frame=1   StationType=MinNumSta   MinNumSta=3   AddAtElmInt=Yes   AddAtPtLoad=Yes
   Frame=2   StationType=MinNumSta   MinNumSta=3   AddAtElmInt=Yes   AddAtPtLoad=Yes
   Frame=3   StationType=MaxStaSpcg   MaxStaSpcg=2   AddAtElmInt=Yes   AddAtPtLoad=Yes
   Frame=7   StationType=MinNumSta   MinNumSta=3   AddAtElmInt=Yes   AddAtPtLoad=Yes
   Frame=8   StationType=MinNumSta   MinNumSta=3   AddAtElmInt=Yes   AddAtPtLoad=Yes
   Frame=9   StationType=MinNumSta   MinNumSta=3   AddAtElmInt=Yes   AddAtPtLoad=Yes
   Frame=10   StationType=MinNumSta   MinNumSta=3   AddAtElmInt=Yes   AddAtPtLoad=Yes
   Frame=11   StationType=MinNumSta   MinNumSta=3   AddAtElmInt=Yes   AddAtPtLoad=Yes
   Frame=12   StationType=MinNumSta   MinNumSta=3   AddAtElmInt=Yes   AddAtPtLoad=Yes
   Frame=18   StationType=MinNumSta   MinNumSta=3   AddAtElmInt=Yes   AddAtPtLoad=Yes
   Frame=19   StationType=MinNumSta   MinNumSta=3   AddAtElmInt=Yes   AddAtPtLoad=Yes
   Frame=20   StationType=MinNumSta   MinNumSta=3   AddAtElmInt=Yes   AddAtPtLoad=Yes
   Frame=21   StationType=MinNumSta   MinNumSta=3   AddAtElmInt=Yes   AddAtPtLoad=Yes
   Frame=22   StationType=MinNumSta   MinNumSta=3   AddAtElmInt=Yes   AddAtPtLoad=Yes
   Frame=23   StationType=MaxStaSpcg   MaxStaSpcg=2   AddAtElmInt=Yes   AddAtPtLoad=Yes
   Frame=24   StationType=MaxStaSpcg   MaxStaSpcg=2   AddAtElmInt=Yes   AddAtPtLoad=Yes
   Frame=25   StationType=MinNumSta   MinNumSta=3   AddAtElmInt=Yes   AddAtPtLoad=Yes
   Frame=26   StationType=MinNumSta   MinNumSta=3   AddAtElmInt=Yes   AddAtPtLoad=Yes
   Frame=27   StationType=MaxStaSpcg   MaxStaSpcg=2   AddAtElmInt=Yes   AddAtPtLoad=Yes
   Frame=28   StationType=MinNumSta   MinNumSta=3   AddAtElmInt=Yes   AddAtPtLoad=Yes
   Frame=29   StationType=MinNumSta   MinNumSta=3   AddAtElmInt=Yes   AddAtPtLoad=Yes
   Frame=30   StationType=MinNumSta   MinNumSta=3   AddAtElmInt=Yes   AddAtPtLoad=Yes
   Frame=31   StationType=MinNumSta   MinNumSta=3   AddAtElmInt=Yes   AddAtPtLoad=Yes
   Frame=32   StationType=MinNumSta   MinNumSta=3   AddAtElmInt=Yes   AddAtPtLoad=Yes
   Frame=33   StationType=MinNumSta   MinNumSta=3   AddAtElmInt=Yes   AddAtPtLoad=Yes
   Frame=34   StationType=MinNumSta   MinNumSta=3   AddAtElmInt=Yes   AddAtPtLoad=Yes
   Frame=35   StationType=MinNumSta   MinNumSta=3   AddAtElmInt=Yes   AddAtPtLoad=Yes
   Frame=36   StationType=MinNumSta   MinNumSta=3   AddAtElmInt=Yes   AddAtPtLoad=Yes
   Frame=37   StationType=MinNumSta   MinNumSta=3   AddAtElmInt=Yes   AddAtPtLoad=Yes
   Frame=38   StationType=MinNumSta   MinNumSta=3   AddAtElmInt=Yes   AddAtPtLoad=Yes
   Frame=39   StationType=MaxStaSpcg   MaxStaSpcg=2   AddAtElmInt=Yes   AddAtPtLoad=Yes
   Frame=40   StationType=MaxStaSpcg   MaxStaSpcg=2   AddAtElmInt=Yes   AddAtPtLoad=Yes
   Frame=41   StationType=MinNumSta   MinNumSta=3   AddAtElmInt=Yes   AddAtPtLoad=Yes
   Frame=42   StationType=MinNumSta   MinNumSta=3   AddAtElmInt=Yes   AddAtPtLoad=Yes
   Frame=43   StationType=MaxStaSpcg   MaxStaSpcg=2   AddAtElmInt=Yes   AddAtPtLoad=Yes
   Frame=44   StationType=MinNumSta   MinNumSta=3   AddAtElmInt=Yes   AddAtPtLoad=Yes
   Frame=45   StationType=MinNumSta   MinNumSta=3   AddAtElmInt=Yes   AddAtPtLoad=Yes
   Frame=46   StationType=MinNumSta   MinNumSta=3   AddAtElmInt=Yes   AddAtPtLoad=Yes
   Frame=47   StationType=MinNumSta   MinNumSta=3   AddAtElmInt=Yes   AddAtPtLoad=Yes
   Frame=48   StationType=MinNumSta   MinNumSta=3   AddAtElmInt=Yes   AddAtPtLoad=Yes
   Frame=49   StationType=MinNumSta   MinNumSta=3   AddAtElmInt=Yes   AddAtPtLoad=Yes
   Frame=50   StationType=MinNumSta   MinNumSta=3   AddAtElmInt=Yes   AddAtPtLoad=Yes
   Frame=51   StationType=MinNumSta   MinNumSta=3   AddAtElmInt=Yes   AddAtPtLoad=Yes
   Frame=52   StationType=MinNumSta   MinNumSta=3   AddAtElmInt=Yes   AddAtPtLoad=Yes
   Frame=53   StationType=MinNumSta   MinNumSta=3   AddAtElmInt=Yes   AddAtPtLoad=Yes
   Frame=54   StationType=MinNumSta   MinNumSta=3   AddAtElmInt=Yes   AddAtPtLoad=Yes
   Frame=55   StationType=MaxStaSpcg   MaxStaSpcg=2   AddAtElmInt=Yes   AddAtPtLoad=Yes
   Frame=56   StationType=MaxStaSpcg   MaxStaSpcg=2   AddAtElmInt=Yes   AddAtPtLoad=Yes
   Frame=57   StationType=MinNumSta   MinNumSta=3   AddAtElmInt=Yes   AddAtPtLoad=Yes
   Frame=58   StationType=MinNumSta   MinNumSta=3   AddAtElmInt=Yes   AddAtPtLoad=Yes
   Frame=59   StationType=MaxStaSpcg   MaxStaSpcg=2   AddAtElmInt=Yes   AddAtPtLoad=Yes
   Frame=60   StationType=MinNumSta   MinNumSta=3   AddAtElmInt=Yes   AddAtPtLoad=Yes
   Frame=61   StationType=MinNumSta   MinNumSta=3   AddAtElmInt=Yes   AddAtPtLoad=Yes
   Frame=62   StationType=MinNumSta   MinNumSta=3   AddAtElmInt=Yes   AddAtPtLoad=Yes
   Frame=63   StationType=MinNumSta   MinNumSta=3   AddAtElmInt=Yes   AddAtPtLoad=Yes
   Frame=64   StationType=MinNumSta   MinNumSta=3   AddAtElmInt=Yes   AddAtPtLoad=Yes
   Frame=65   StationType=MinNumSta   MinNumSta=3   AddAtElmInt=Yes   AddAtPtLoad=Yes
   Frame=66   StationType=MinNumSta   MinNumSta=3   AddAtElmInt=Yes   AddAtPtLoad=Yes
   Frame=67   StationType=MinNumSta   MinNumSta=3   AddAtElmInt=Yes   AddAtPtLoad=Yes
   Frame=68   StationType=MinNumSta   MinNumSta=3   AddAtElmInt=Yes   AddAtPtLoad=Yes
   Frame=69   StationType=MinNumSta   MinNumSta=3   AddAtElmInt=Yes   AddAtPtLoad=Yes
   Frame=70   StationType=MinNumSta   MinNumSta=3   AddAtElmInt=Yes   AddAtPtLoad=Yes
   Frame=71   StationType=MaxStaSpcg   MaxStaSpcg=2   AddAtElmInt=Yes   AddAtPtLoad=Yes
   Frame=72   StationType=MaxStaSpcg   MaxStaSpcg=2   AddAtElmInt=Yes   AddAtPtLoad=Yes
   Frame=73   StationType=MaxStaSpcg   MaxStaSpcg=2   AddAtElmInt=Yes   AddAtPtLoad=Yes
   Frame=75   StationType=MaxStaSpcg   MaxStaSpcg=2   AddAtElmInt=Yes   AddAtPtLoad=Yes
   Frame=76   StationType=MaxStaSpcg   MaxStaSpcg=2   AddAtElmInt=Yes   AddAtPtLoad=Yes
   Frame=77   StationType=MaxStaSpcg   MaxStaSpcg=2   AddAtElmInt=Yes   AddAtPtLoad=Yes
 
TABLE:  "FRAME RELEASE ASSIGNMENTS 1 - GENERAL"
   Frame=7   PI=No   V2I=No   V3I=No   TI=No   M2I=No   M3I=Yes   PJ=No   V2J=No   V3J=No   TJ=No   M2J=No   M3J=Yes
   Frame=8   PI=No   V2I=No   V3I=No   TI=No   M2I=No   M3I=Yes   PJ=No   V2J=No   V3J=No   TJ=No   M2J=No   M3J=Yes
   Frame=9   PI=No   V2I=No   V3I=No   TI=No   M2I=No   M3I=Yes   PJ=No   V2J=No   V3J=No   TJ=No   M2J=No   M3J=Yes
   Frame=10   PI=No   V2I=No   V3I=No   TI=No   M2I=No   M3I=Yes   PJ=No   V2J=No   V3J=No   TJ=No   M2J=No   M3J=Yes
   Frame=11   PI=No   V2I=No   V3I=No   TI=No   M2I=No   M3I=Yes   PJ=No   V2J=No   V3J=No   TJ=No   M2J=No   M3J=Yes
   Frame=12   PI=No   V2I=No   V3I=No   TI=No   M2I=No   M3I=Yes   PJ=No   V2J=No   V3J=No   TJ=No   M2J=No   M3J=Yes
   Frame=18   PI=No   V2I=No   V3I=No   TI=No   M2I=No   M3I=Yes   PJ=No   V2J=No   V3J=No   TJ=No   M2J=No   M3J=Yes
   Frame=19   PI=No   V2I=No   V3I=No   TI=No   M2I=No   M3I=Yes   PJ=No   V2J=No   V3J=No   TJ=No   M2J=No   M3J=Yes
   Frame=20   PI=No   V2I=No   V3I=No   TI=No   M2I=No   M3I=Yes   PJ=No   V2J=No   V3J=No   TJ=No   M2J=No   M3J=Yes
   Frame=21   PI=No   V2I=No   V3I=No   TI=No   M2I=No   M3I=Yes   PJ=No   V2J=No   V3J=No   TJ=No   M2J=No   M3J=Yes
   Frame=22   PI=No   V2I=No   V3I=No   TI=No   M2I=No   M3I=Yes   PJ=No   V2J=No   V3J=No   TJ=No   M2J=No   M3J=Yes
   Frame=28   PI=No   V2I=No   V3I=No   TI=No   M2I=No   M3I=Yes   PJ=No   V2J=No   V3J=No   TJ=No   M2J=No   M3J=Yes
   Frame=29   PI=No   V2I=No   V3I=No   TI=No   M2I=No   M3I=Yes   PJ=No   V2J=No   V3J=No   TJ=No   M2J=No   M3J=Yes
   Frame=30   PI=No   V2I=No   V3I=No   TI=No   M2I=No   M3I=Yes   PJ=No   V2J=No   V3J=No   TJ=No   M2J=No   M3J=Yes
   Frame=31   PI=No   V2I=No   V3I=No   TI=No   M2I=No   M3I=Yes   PJ=No   V2J=No   V3J=No   TJ=No   M2J=No   M3J=Yes
   Frame=32   PI=No   V2I=No   V3I=No   TI=No   M2I=No   M3I=Yes   PJ=No   V2J=No   V3J=No   TJ=No   M2J=No   M3J=Yes
   Frame=33   PI=No   V2I=No   V3I=No   TI=No   M2I=No   M3I=Yes   PJ=No   V2J=No   V3J=No   TJ=No   M2J=No   M3J=Yes
   Frame=34   PI=No   V2I=No   V3I=No   TI=No   M2I=No   M3I=Yes   PJ=No   V2J=No   V3J=No   TJ=No   M2J=No   M3J=Yes
   Frame=35   PI=No   V2I=No   V3I=No   TI=No   M2I=No   M3I=Yes   PJ=No   V2J=No   V3J=No   TJ=No   M2J=No   M3J=Yes
   Frame=36   PI=No   V2I=No   V3I=No   TI=No   M2I=No   M3I=Yes   PJ=No   V2J=No   V3J=No   TJ=No   M2J=No   M3J=Yes
# ... 24 like lines cut
 
TABLE:  "FRAME SECTION ASSIGNMENTS"
   Frame=1   AutoSelect=N.A.   AnalSect=HSS8X8X3/8   MatProp=Default
   Frame=2   AutoSelect=N.A.   AnalSect=HSS8X8X3/8   MatProp=Default
   Frame=3   AutoSelect=TRUSS   AnalSect=W8X28   MatProp=Default
   Frame=7   AutoSelect=TRUSS   AnalSect=W8X28   MatProp=Default
   Frame=8   AutoSelect=TRUSS   AnalSect=W8X28   MatProp=Default
   Frame=9   AutoSelect=TRUSS   AnalSect=W8X28   MatProp=Default
   Frame=10   AutoSelect=TRUSS   AnalSect=W8X28   MatProp=Default
   Frame=11   AutoSelect=TRUSS   AnalSect=W8X28   MatProp=Default
   Frame=12   AutoSelect=TRUSS   AnalSect=W8X28   MatProp=Default
   Frame=18   AutoSelect=TRUSS   AnalSect=W8X28   MatProp=Default
   Frame=19   AutoSelect=TRUSS   AnalSect=W8X28   MatProp=Default
   Frame=20   AutoSelect=TRUSS   AnalSect=W8X28   MatProp=Default
   Frame=21   AutoSelect=TRUSS   AnalSect=W8X28   MatProp=Default
   Frame=22   AutoSelect=TRUSS   AnalSect=W8X28   MatProp=Default
   Frame=23   AutoSelect=TRUSS   AnalSect=W8X28   MatProp=Default
   Frame=24   AutoSelect=TRUSS   AnalSect=W8X28   MatProp=Default
   Frame=25   AutoSelect=N.A.   AnalSect=HSS8X8X3/8   MatProp=Default
   Frame=26   AutoSelect=N.A.   AnalSect=HSS8X8X3/8   MatProp=Default
   Frame=27   AutoSelect=TRUSS   AnalSect=W8X28   MatProp=Default
   Frame=28   AutoSelect=TRUSS   AnalSect=W8X28   MatProp=Default
   Frame=29   AutoSelect=TRUSS   AnalSect=W8X28   MatProp=Default
   Frame=30   AutoSelect=TRUSS   AnalSect=W8X28   MatProp=Default
   Frame=31   AutoSelect=TRUSS   AnalSect=W8X28   MatProp=Default
   Frame=32   AutoSelect=TRUSS   AnalSect=W8X28   MatProp=Default
   Frame=33   AutoSelect=TRUSS   AnalSect=W8X28   MatProp=Default
   Frame=34   AutoSelect=TRUSS   AnalSect=W8X28   MatProp=Default
   Frame=35   AutoSelect=TRUSS   AnalSect=W8X28   MatProp=Default
   Frame=36   AutoSelect=TRUSS   AnalSect=W8X28   MatProp=Default
   Frame=37   AutoSelect=TRUSS   AnalSect=W8X28   MatProp=Default
   Frame=38   AutoSelect=TRUSS   AnalSect=W8X28   MatProp=Default
   Frame=39   AutoSelect=TRUSS   AnalSect=W8X28   MatProp=Default
   Frame=40   AutoSelect=TRUSS   AnalSect=W8X28   MatProp=Default
   Frame=41   AutoSelect=N.A.   AnalSect=HSS8X8X3/8   MatProp=Default
   Frame=42   AutoSelect=N.A.   AnalSect=HSS8X8X3/8   MatProp=Default
   Frame=43   AutoSelect=TRUSS   AnalSect=W8X28   MatProp=Default
   Frame=44   AutoSelect=TRUSS   AnalSect=W8X28   MatProp=Default
   Frame=45   AutoSelect=TRUSS   AnalSect=W8X28   MatProp=Default
   Frame=46   AutoSelect=TRUSS   AnalSect=W8X28   MatProp=Default
   Frame=47   AutoSelect=TRUSS   AnalSect=W8X28   MatProp=Default
   Frame=48   AutoSelect=TRUSS   AnalSect=W8X28   MatProp=Default
   Frame=49   AutoSelect=TRUSS   AnalSect=W8X28   MatProp=Default
   Frame=50   AutoSelect=TRUSS   AnalSect=W8X28   MatProp=Default
   Frame=51   AutoSelect=TRUSS   AnalSect=W8X28   MatProp=Default
   Frame=52   AutoSelect=TRUSS   AnalSect=W8X28   MatProp=Default
   Frame=53   AutoSelect=TRUSS   AnalSect=W8X28   MatProp=Default
   Frame=54   AutoSelect=TRUSS   AnalSect=W8X28   MatProp=Default
   Frame=55   AutoSelect=TRUSS   AnalSect=W8X28   MatProp=Default
   Frame=56   AutoSelect=TRUSS   AnalSect=W8X28   MatProp=Default
   Frame=57   AutoSelect=N.A.   AnalSect=HSS8X8X3/8   MatProp=Default
   Frame=58   AutoSelect=N.A.   AnalSect=HSS8X8X3/8   MatProp=Default
   Frame=59   AutoSelect=TRUSS   AnalSect=W8X28   MatProp=Default
   Frame=60   AutoSelect=TRUSS   AnalSect=W8X28   MatProp=Default
   Frame=61   AutoSelect=TRUSS   AnalSect=W8X28   MatProp=Default
   Frame=62   AutoSelect=TRUSS   AnalSect=W8X28   MatProp=Default
   Frame=63   AutoSelect=TRUSS   AnalSect=W8X28   MatProp=Default
   Frame=64   AutoSelect=TRUSS   AnalSect=W8X28   MatProp=Default
   Frame=65   AutoSelect=TRUSS   AnalSect=W8X28   MatProp=Default
   Frame=66   AutoSelect=TRUSS   AnalSect=W8X28   MatProp=Default
   Frame=67   AutoSelect=TRUSS   AnalSect=W8X28   MatProp=Default
   Frame=68   AutoSelect=TRUSS   AnalSect=W8X28   MatProp=Default
   Frame=69   AutoSelect=TRUSS   AnalSect=W8X28   MatProp=Default
   Frame=70   AutoSelect=TRUSS   AnalSect=W8X28   MatProp=Default
   Frame=71   AutoSelect=TRUSS   AnalSect=W8X28   MatProp=Default
   Frame=72   AutoSelect=TRUSS   AnalSect=W8X28   MatProp=Default
   Frame=73   AutoSelect=N.A.   AnalSect=W8X31   MatProp=Default
   Frame=75   AutoSelect=N.A.   AnalSect=W8X31   MatProp=Default
   Frame=76   AutoSelect=N.A.   AnalSect=W8X31   MatProp=Default
   Frame=77   AutoSelect=N.A.   AnalSect=W8X31   MatProp=Default
 
TABLE:  "FRAME SECTION PROPERTIES 01 - GENERAL"
   SectionName=HSS8X8X3/8   Material=A500GrB46   Shape=Box/Tube   t3=0.666666666666667   t2=0.666666666666667   tf=0.0290833339095116   tw=0.0290833339095116   Area=0.0722222195731269   TorsConst=0.00771604938271605 _
        I33=0.00482253086419753   I22=0.00482253086419753   I23=0   AS2=0.0387777785460154   AS3=0.0387777785460154   S33=0.0144675925925926   S22=0.0144675925925926   Z33=0.0170138886681309   Z22=0.0170138886681309   R33=0.258405701799983 _
        R22=0.258405701799983   Color=Gray8Dark   FromFile=Yes   AMod=1   A2Mod=1   A3Mod=1   JMod=1   I2Mod=1   I3Mod=1   MMod=1   WMod=1   SectInFile=HSS8X8X3/8 _
        FileName="c:\program files\computers and structures\sap2000 20\sections8.pro"   Notes="Imported 1/1/2019 1:32:34 AM from SECTIONS8.PRO"
   SectionName=TRUSS   Shape="Auto Select"   AutoType=Steel   Color=Green   Notes="Imported 1/1/2019 1:33:54 AM from SECTIONS8.PRO"
   SectionName=W8X10   Material=A992Fy50   Shape="I/Wide Flange"   t3=0.6574999888738   t2=0.328333338101705   tf=0.0170833331843217   tw=0.0141666668156783   t2b=0.328333338101705   tfb=0.0170833331843217   Area=0.0205555558204651 _
        TorsConst=2.05439807168771E-06   I33=0.00148533946937985   I22=0.000100790890922517   I23=0   AS2=0.009314583407508   AS3=0.00934837924109565   S33=0.00451814294909424   S22=0.000613954656601431   Z33=0.00513310178562447 _
        Z22=0.000960648128831828   R33=0.268811750186973   R22=0.0700238571936882   Color=Cyan   FromFile=Yes   AMod=1   A2Mod=1   A3Mod=1   JMod=1   I2Mod=1   I3Mod=1   MMod=1   WMod=1   SectInFile=W8X10 _
        FileName="c:\program files\computers and structures\sap2000 20\sections8.pro"   Notes="Imported 1/1/2019 1:33:54 AM from SECTIONS8.PRO"
   SectionName=W8X13   Material=A992Fy50   Shape="I/Wide Flange"   t3=0.665833314259847   t2=0.333333333333333   tf=0.0212499996026357   tw=0.0191666670143604   t2b=0.333333333333333   tfb=0.0212499996026357   Area=0.0266666660706202 _
        TorsConst=4.2004243436235E-06   I33=0.00190972214863624   I22=0.000131655093512417   I23=0   AS2=0.0127618056204584   AS3=0.0118055558866925   S33=0.00573633703131579   S22=0.000789930561074504   Z33=0.00659722200146428 _
        Z22=0.00124421301815245   R33=0.267609009890492   R22=0.0702642591725529   Color=Red   FromFile=Yes   AMod=1   A2Mod=1   A3Mod=1   JMod=1   I2Mod=1   I3Mod=1   MMod=1   WMod=1   SectInFile=W8X13 _
        FileName="c:\program files\computers and structures\sap2000 20\sections8.pro"   Notes="Imported 1/1/2019 1:33:54 AM from SECTIONS8.PRO"
   SectionName=W8X15   Material=A992Fy50   Shape="I/Wide Flange"   t3=0.675833304723104   t2=0.334166685740153   tf=0.0262499998013178   tw=0.020416667064031   t2b=0.334166685740153   tfb=0.0262499998013178   Area=0.0308333337306976 _
        TorsConst=6.606867019501E-06   I33=0.00231481481481481   I22=0.000164448306608347   I23=0   AS2=0.0137982641657193   AS3=0.0146197908454471   S33=0.00685025374937158   S22=0.000984229210306271   Z33=0.00787037059112831 _
        Z22=0.00154513893304048   R33=0.27399831041002   R22=0.0730305314506765   Color=Magenta   FromFile=Yes   AMod=1   A2Mod=1   A3Mod=1   JMod=1   I2Mod=1   I3Mod=1   MMod=1   WMod=1   SectInFile=W8X15 _
        FileName="c:\program files\computers and structures\sap2000 20\sections8.pro"   Notes="Imported 1/1/2019 1:33:54 AM from SECTIONS8.PRO"
   SectionName=W8X18   Material=A992Fy50   Shape="I/Wide Flange"   t3=0.678333361943563   t2=0.4375   tf=0.0275000010927518   tw=0.0191666670143604   t2b=0.4375   tfb=0.0275000010927518   Area=0.036527779367235 _
        TorsConst=8.29475336811609E-06   I33=0.00298514667852425   I22=0.000384355699758471   I23=0   AS2=0.0130013889736599   AS3=0.0200520836644702   S33=0.00880141489715677   S22=0.00175705462746729   Z33=0.00983796296296296 _
        Z22=0.00269675917095608   R33=0.285871725003366   R22=0.102578189000969   Color=Yellow   FromFile=Yes   AMod=1   A2Mod=1   A3Mod=1   JMod=1   I2Mod=1   I3Mod=1   MMod=1   WMod=1   SectInFile=W8X18 _
        FileName="c:\program files\computers and structures\sap2000 20\sections8.pro"   Notes="Imported 1/1/2019 1:33:54 AM from SECTIONS8.PRO"
   SectionName=W8X21   Material=A992Fy50   Shape="I/Wide Flange"   t3=0.689999977747599   t2=0.439166665077209   tf=0.0333333338300387   tw=0.0208333333333333   t2b=0.439166665077209   tfb=0.0333333338300387   Area=0.0427777767181396 _
        TorsConst=1.35995372899888E-05   I33=0.0036313658879127   I22=0.000471161287507893   I23=0   AS2=0.0143749995364083   AS3=0.024398148059845   S33=0.0105256985652862   S22=0.00214570606093274   Z33=0.0118055553347976 _
        Z22=0.00329282410718777   R33=0.291357297501229   R22=0.104948369403941   Color=Gray8Dark   FromFile=Yes   AMod=1   A2Mod=1   A3Mod=1   JMod=1   I2Mod=1   I3Mod=1   MMod=1   WMod=1   SectInFile=W8X21 _
        FileName="c:\program files\computers and structures\sap2000 20\sections8.pro"   Notes="Imported 1/1/2019 1:33:54 AM from SECTIONS8.PRO"
   SectionName=W8X24   Material=A992Fy50   Shape="I/Wide Flange"   t3=0.660833319028219   t2=0.541666666666667   tf=0.0333333338300387   tw=0.020416667064031   t2b=0.541666666666667   tfb=0.0333333338300387   Area=0.0491666661368476 _
        TorsConst=1.66859561117527E-05   I33=0.0039882328775194   I22=0.000882523111355157   I23=0   AS2=0.0134920138451788   AS3=0.0300925936963823   S33=0.0120703141402865   S22=0.00325854687269597   Z33=0.0133680557763135 _
        Z22=0.00495949056413439   R33=0.284809764180954   R22=0.133976202354219   Color=Blue   FromFile=Yes   AMod=1   A2Mod=1   A3Mod=1   JMod=1   I2Mod=1   I3Mod=1   MMod=1   WMod=1   SectInFile=W8X24 _
        FileName="c:\program files\computers and structures\sap2000 20\sections8.pro"   Notes="Imported 1/1/2019 1:33:54 AM from SECTIONS8.PRO"
   SectionName=W8X28   Material=A992Fy50   Shape="I/Wide Flange"   t3=0.671666701634725   t2=0.544999996821086   tf=0.0387500002980232   tw=0.0237499997019768   t2b=0.544999996821086   tfb=0.0387500002980232   Area=0.057222220632765 _
        TorsConst=2.58969907637364E-05   I33=0.00472608024691358   I22=0.00104648923432385   I23=0   AS2=0.0159520837995741   AS3=0.0351979169580671   S33=0.0140726947916611   S22=0.00384032748780877   Z33=0.0157407411822566 _
        Z22=0.00584490762816535   R33=0.287387710122625   R22=0.135233730572377   Color=Green   FromFile=Yes   AMod=1   A2Mod=1   A3Mod=1   JMod=1   I2Mod=1   I3Mod=1   MMod=1   WMod=1   SectInFile=W8X28 _
        FileName="c:\program files\computers and structures\sap2000 20\sections8.pro"   Notes="Imported 1/1/2019 1:33:54 AM from SECTIONS8.PRO"
   SectionName=W8X31   Material=A992Fy50   Shape="I/Wide Flange"   t3=0.666666666666667   t2=0.666666666666667   tf=0.0362500001986821   tw=0.0237499997019768   t2b=0.666666666666667   tfb=0.0362500001986821   Area=0.0633333325386047 _
        TorsConst=2.58487660759761E-05   I33=0.00530478395061728   I22=0.0017891588770313   I23=0   AS2=0.0158333331346512   AS3=0.0402777791023254   S33=0.0159143518518519   S22=0.00536747663109391   Z33=0.0175925923718346 _
        Z22=0.00815972244298017   R33=0.289412763436135   R22=0.168076998308057   Color=Cyan   FromFile=Yes   AMod=1   A2Mod=1   A3Mod=1   JMod=1   I2Mod=1   I3Mod=1   MMod=1   WMod=1   SectInFile=W8X31 _
        FileName="c:\program files\computers and structures\sap2000 20\sections8.pro"   Notes="Imported 1/1/2019 1:33:54 AM from SECTIONS8.PRO"
   SectionName=W8X35   Material=A992Fy50   Shape="I/Wide Flange"   t3=0.676666657129923   t2=0.668333371480306   tf=0.0412500003973643   tw=0.0258333335320155   t2b=0.668333371480306   tfb=0.0412500003973643   Area=0.0715277791023254 _
        TorsConst=3.7085262046736E-05   I33=0.00612461419753086   I22=0.00205439807456217   I23=0   AS2=0.0174805555078718   AS3=0.0459479159779019   S33=0.0181023082281263   S22=0.00614782431112735   Z33=0.0200810189600344 _
        Z22=0.00931712985038757   R33=0.292618647102838   R22=0.169474721676287   Color=Red   FromFile=Yes   AMod=1   A2Mod=1   A3Mod=1   JMod=1   I2Mod=1   I3Mod=1   MMod=1   WMod=1   SectInFile=W8X35 _
        FileName="c:\program files\computers and structures\sap2000 20\sections8.pro"   Notes="Imported 1/1/2019 1:33:54 AM from SECTIONS8.PRO"
   SectionName=W8X40   Material=A992Fy50   Shape="I/Wide Flange"   t3=0.6875   t2=0.672499974568685   tf=0.0466666668653488   tw=0.0300000011920929   t2b=0.672499974568685   tfb=0.0466666668653488   Area=0.0812499986754523 _
        TorsConst=5.40123459089685E-05   I33=0.0070408950617284   I22=0.00236786258073501   I23=0   AS2=0.0206250001986821   AS3=0.0523055560059018   S33=0.0204826038159372   S22=0.0070419707666269   Z33=0.0230324069658915 _
        Z22=0.0107060185185185   R33=0.294375901532716   R22=0.170712988801896   Color=Magenta   FromFile=Yes   AMod=1   A2Mod=1   A3Mod=1   JMod=1   I2Mod=1   I3Mod=1   MMod=1   WMod=1   SectInFile=W8X40 _
        FileName="c:\program files\computers and structures\sap2000 20\sections8.pro"   Notes="Imported 1/1/2019 1:33:54 AM from SECTIONS8.PRO"
   SectionName=W8X48   Material=A992Fy50   Shape="I/Wide Flange"   t3=0.708333333333333   t2=0.675833304723104   tf=0.0570833335320155   tw=0.0333333338300387   t2b=0.675833304723104   tfb=0.0570833335320155   Area=0.097916669315762 _
        TorsConst=9.45216067779211E-05   I33=0.00887345679012346   I22=0.00293692136988228   I23=0   AS2=0.0236111117733849   AS3=0.0642980337142944   S33=0.0250544662309368   S22=0.0086912596622789   Z33=0.0283564814814815 _
        Z22=0.0132523145940569   R33=0.301035770265416   R22=0.17318801856524   Color=Yellow   FromFile=Yes   AMod=1   A2Mod=1   A3Mod=1   JMod=1   I2Mod=1   I3Mod=1   MMod=1   WMod=1   SectInFile=W8X48 _
        FileName="c:\program files\computers and structures\sap2000 20\sections8.pro"   Notes="Imported 1/1/2019 1:33:54 AM from SECTIONS8.PRO"
   SectionName=W8X58   Material=A992Fy50   Shape="I/Wide Flange"   t3=0.729166666666667   t2=0.685000022252401   tf=0.0675000001986821   tw=0.0424999992052714   t2b=0.685000022252401   tfb=0.0675000001986821   Area=0.118750002649095 _
        TorsConst=0.000160590274098479   I33=0.0109953703703704   I22=0.00362172060542636   I23=0   AS2=0.0309895839956072   AS3=0.0770625008477105   S33=0.0301587301587302   S22=0.0105743663876609   Z33=0.0346064810399656 _
        Z22=0.0161458331125754   R33=0.304290306331012   R22=0.174638767617042   Color=Gray8Dark   FromFile=Yes   AMod=1   A2Mod=1   A3Mod=1   JMod=1   I2Mod=1   I3Mod=1   MMod=1   WMod=1   SectInFile=W8X58 _
        FileName="c:\program files\computers and structures\sap2000 20\sections8.pro"   Notes="Imported 1/1/2019 1:33:54 AM from SECTIONS8.PRO"
   SectionName=W8X67   Material=A992Fy50   Shape="I/Wide Flange"   t3=0.75   t2=0.689999977747599   tf=0.0779166668653488   tw=0.0474999994039536   t2b=0.689999977747599   tfb=0.0779166668653488   Area=0.136805560853746 _
        TorsConst=0.000243537817840223   I33=0.0131172839506173   I22=0.00427276227209303   I23=0   AS2=0.0356250007947286   AS3=0.0896041658189562   S33=0.0349794238683128   S22=0.0123848185793884   Z33=0.0405671287465979 _
        Z22=0.018923611552627   R33=0.309649287100484   R22=0.176726830897391   Color=Green   FromFile=Yes   AMod=1   A2Mod=1   A3Mod=1   JMod=1   I2Mod=1   I3Mod=1   MMod=1   WMod=1   SectInFile=W8X67 _
        FileName="c:\program files\computers and structures\sap2000 20\sections8.pro"   Notes="Imported 1/1/2019 1:33:54 AM from SECTIONS8.PRO"
 
TABLE:  "FRAME SECTION PROPERTIES 04 - AUTO SELECT"
   ListName=TRUSS   SectionName=W8X10
   ListName=TRUSS   SectionName=W8X13
   ListName=TRUSS   SectionName=W8X15
   ListName=TRUSS   SectionName=W8X18
   ListName=TRUSS   SectionName=W8X21
   ListName=TRUSS   SectionName=W8X24
   ListName=TRUSS   SectionName=W8X28
   ListName=TRUSS   SectionName=W8X31
   ListName=TRUSS   SectionName=W8X35
   ListName=TRUSS   SectionName=W8X40
   ListName=TRUSS   SectionName=W8X48
   ListName=TRUSS   SectionName=W8X58
   ListName=TRUSS   SectionName=W8X67
 
TABLE:  "FRAME SECTION PROPERTIES 13 - TIME DEPENDENT"
   SectionName=HSS8X8X3/8   TypeSize=Auto   AutoSFSize=1
   SectionName=W8X10   TypeSize=Auto   AutoSFSize=1
   SectionName=W8X13   TypeSize=Auto   AutoSFSize=1
   SectionName=W8X15   TypeSize=Auto   AutoSFSize=1
   SectionName=W8X18   TypeSize=Auto   AutoSFSize=1
   SectionName=W8X21   TypeSize=Auto   AutoSFSize=1
   SectionName=W8X24   TypeSize=Auto   AutoSFSize=1
   SectionName=W8X28   TypeSize=Auto   AutoSFSize=1
   SectionName=W8X31   TypeSize=Auto   AutoSFSize=1
   SectionName=W8X35   TypeSize=Auto   AutoSFSize=1
   SectionName=W8X40   TypeSize=Auto   AutoSFSize=1
   SectionName=W8X48   TypeSize=Auto   AutoSFSize=1
   SectionName=W8X58   TypeSize=Auto   AutoSFSize=1
   SectionName=W8X67   TypeSize=Auto   AutoSFSize=1
 
TABLE:  "FUNCTION - PLOT FUNCTIONS"
   PlotFunc="Input Energy"   Type=Energy   Component=Input   Mode=All
 
TABLE:  "FUNCTION - POWER SPECTRAL DENSITY - USER"
   Name=UNIFPSD   Frequency=0   Value=1
   Name=UNIFPSD   Frequency=1   Value=1
 
TABLE:  "FUNCTION - RESPONSE SPECTRUM - USER"
   Name=UNIFRS   Period=0   Accel=1   FuncDamp=0.05
   Name=UNIFRS   Period=1   Accel=1
 
TABLE:  "FUNCTION - STEADY STATE - USER"
   Name=UNIFSS   Frequency=0   Value=1
   Name=UNIFSS   Frequency=1   Value=1
 
TABLE:  "FUNCTION - TIME HISTORY - USER"
   Name=RAMPTH   Time=0   Value=0
   Name=RAMPTH   Time=1   Value=1
   Name=RAMPTH   Time=4   Value=1
   Name=UNIFTH   Time=0   Value=1
   Name=UNIFTH   Time=1   Value=1
 
TABLE:  "GRID LINES"
   CoordSys=GLOBAL   AxisDir=X   GridID=A   XRYZCoord=0   LineType=Primary   LineColor=Gray8Dark   Visible=Yes   BubbleLoc=End   AllVisible=Yes   BubbleSize=5
   CoordSys=GLOBAL   AxisDir=X   GridID=B   XRYZCoord=36   LineType=Primary   LineColor=Gray8Dark   Visible=Yes   BubbleLoc=End
   CoordSys=GLOBAL   AxisDir=Y   GridID=1   XRYZCoord=0   LineType=Primary   LineColor=Gray8Dark   Visible=Yes   BubbleLoc=Start
   CoordSys=GLOBAL   AxisDir=Y   GridID=2   XRYZCoord=6   LineType=Primary   LineColor=Gray8Dark   Visible=Yes   BubbleLoc=Start
   CoordSys=GLOBAL   AxisDir=Y   GridID=3   XRYZCoord=12   LineType=Primary   LineColor=Gray8Dark   Visible=Yes   BubbleLoc=Start
   CoordSys=GLOBAL   AxisDir=Y   GridID=4   XRYZCoord=18   LineType=Primary   LineColor=Gray8Dark   Visible=Yes   BubbleLoc=Start
   CoordSys=GLOBAL   AxisDir=Y   GridID=5   XRYZCoord=24   LineType=Primary   LineColor=Gray8Dark   Visible=Yes   BubbleLoc=Start
   CoordSys=GLOBAL   AxisDir=Y   GridID=6   XRYZCoord=30   LineType=Primary   LineColor=Gray8Dark   Visible=Yes   BubbleLoc=Start
   CoordSys=GLOBAL   AxisDir=Y   GridID=7   XRYZCoord=36   LineType=Primary   LineColor=Gray8Dark   Visible=Yes   BubbleLoc=Start
   CoordSys=GLOBAL   AxisDir=Z   GridID=Z1   XRYZCoord=0   LineType=Primary   LineColor=Gray8Dark   Visible=Yes   BubbleLoc=End
   CoordSys=GLOBAL   AxisDir=Z   GridID=Z2   XRYZCoord=20   LineType=Primary   LineColor=Gray8Dark   Visible=Yes   BubbleLoc=End
   CoordSys=GLOBAL   AxisDir=Z   GridID=Z3   XRYZCoord=24   LineType=Primary   LineColor=Gray8Dark   Visible=Yes   BubbleLoc=End
 
TABLE:  "GROUPS 1 - DEFINITIONS"
   GroupName=ALL   Selection=Yes   SectionCut=Yes   Steel=Yes   Concrete=Yes   Aluminum=Yes   ColdFormed=Yes   Stage=Yes   Bridge=Yes   AutoSeismic=No   AutoWind=No   SelDesSteel=No   SelDesAlum=No   SelDesCold=No   MassWeight=Yes   Color=Red
 
TABLE:  "JOINT COORDINATES"
   Joint=1   CoordSys=GLOBAL   CoordType=Cartesian   XorR=0   Y=0   Z=0   SpecialJt=No   GUID=876061cf-dc76-4102-84cd-17f63917e1cf
   Joint=2   CoordSys=GLOBAL   CoordType=Cartesian   XorR=0   Y=0   Z=24   SpecialJt=No   GUID=a3c38773-cf4a-4e1a-816a-c0b3be78c11f
   Joint=3   CoordSys=GLOBAL   CoordType=Cartesian   XorR=0   Y=36   Z=0   SpecialJt=No   GUID=0f16c7ea-016f-4a76-8558-ffa06cbdd9f0
   Joint=4   CoordSys=GLOBAL   CoordType=Cartesian   XorR=0   Y=36   Z=24   SpecialJt=No   GUID=e70bc9a5-46fa-4d7c-b65f-31e9434ce1e3
   Joint=5   CoordSys=GLOBAL   CoordType=Cartesian   XorR=0   Y=0   Z=20   SpecialJt=No   GUID=a2d324a6-d1d8-45ab-8246-fd200c8f0dbf
   Joint=6   CoordSys=GLOBAL   CoordType=Cartesian   XorR=0   Y=36   Z=20   SpecialJt=No   GUID=9ba0f994-404a-4f14-86d4-7d97ab6daede
   Joint=7   CoordSys=GLOBAL   CoordType=Cartesian   XorR=0   Y=30   Z=20   SpecialJt=No   GUID=2da8c0ac-bb42-4255-a2c7-18fed65d5c3c
   Joint=8   CoordSys=GLOBAL   CoordType=Cartesian   XorR=0   Y=30   Z=25   SpecialJt=No   GUID=1b7d3d4b-1025-4951-ba70-fdc63bdbcf1a
   Joint=9   CoordSys=GLOBAL   CoordType=Cartesian   XorR=0   Y=24   Z=20   SpecialJt=No   GUID=6d99beaf-55c5-4fa7-b6ef-ab92889aae05
   Joint=10   CoordSys=GLOBAL   CoordType=Cartesian   XorR=0   Y=24   Z=26   SpecialJt=No   GUID=34b8aebd-3062-4322-89a3-549b12335b33
   Joint=11   CoordSys=GLOBAL   CoordType=Cartesian   XorR=0   Y=18   Z=20   SpecialJt=No   GUID=cb22206b-b45a-4d4e-90ed-c91ba5e81f35
   Joint=12   CoordSys=GLOBAL   CoordType=Cartesian   XorR=0   Y=18   Z=27   SpecialJt=No   GUID=7f5e4796-0905-403c-a6fe-5bac9ea21b4e
   Joint=17   CoordSys=GLOBAL   CoordType=Cartesian   XorR=0   Y=12   Z=26   SpecialJt=No   GUID=cbd00143-1a89-401f-b3a3-c8842e5e1fcb
   Joint=18   CoordSys=GLOBAL   CoordType=Cartesian   XorR=0   Y=12   Z=20   SpecialJt=No   GUID=c93f7ca9-3c59-40ab-a8fe-838727994058
   Joint=19   CoordSys=GLOBAL   CoordType=Cartesian   XorR=0   Y=6   Z=25   SpecialJt=No   GUID=536011d3-e6e2-44f5-b68d-3695d6242989
   Joint=20   CoordSys=GLOBAL   CoordType=Cartesian   XorR=0   Y=6   Z=20   SpecialJt=No   GUID=9b9997d4-9096-4543-a6fc-f5baa08580d1
   Joint=21   CoordSys=GLOBAL   CoordType=Cartesian   XorR=12   Y=0   Z=0   SpecialJt=No   GUID=7eb3d9ab-1c32-47df-9261-e0243beaa4cb
   Joint=22   CoordSys=GLOBAL   CoordType=Cartesian   XorR=12   Y=0   Z=24   SpecialJt=No   GUID=7c2f312b-25fc-4ea3-8634-25c6467720e1
   Joint=23   CoordSys=GLOBAL   CoordType=Cartesian   XorR=12   Y=36   Z=0   SpecialJt=No   GUID=55b5beb4-a7ba-413e-8640-5609f0229bad
   Joint=24   CoordSys=GLOBAL   CoordType=Cartesian   XorR=12   Y=36   Z=24   SpecialJt=No   GUID=66c6dead-d972-496f-aa75-d66bddb07c10
   Joint=25   CoordSys=GLOBAL   CoordType=Cartesian   XorR=12   Y=0   Z=20   SpecialJt=No   GUID=9bcac59d-c824-426f-aa2d-1f9098bd27ca
   Joint=26   CoordSys=GLOBAL   CoordType=Cartesian   XorR=12   Y=36   Z=20   SpecialJt=No   GUID=13ac6858-208b-4b51-b6e4-f0d181c63a5f
   Joint=27   CoordSys=GLOBAL   CoordType=Cartesian   XorR=12   Y=30   Z=20   SpecialJt=No   GUID=e2af6a60-5f90-46bc-b9d3-82e638d25500
   Joint=28   CoordSys=GLOBAL   CoordType=Cartesian   XorR=12   Y=30   Z=25   SpecialJt=No   GUID=809bce56-4155-4e9f-97ad-ce2f5b1e143a
   Joint=29   CoordSys=GLOBAL   CoordType=Cartesian   XorR=12   Y=24   Z=20   SpecialJt=No   GUID=cc4be7b2-6a73-423b-9722-4f951422d560
   Joint=30   CoordSys=GLOBAL   CoordType=Cartesian   XorR=12   Y=24   Z=26   SpecialJt=No   GUID=b7f3ac98-ab72-4024-b332-90eb54d9e8ba
   Joint=31   CoordSys=GLOBAL   CoordType=Cartesian   XorR=12   Y=18   Z=20   SpecialJt=No   GUID=a7c92ea0-7181-4adc-a96d-caa892090b7e
   Joint=32   CoordSys=GLOBAL   CoordType=Cartesian   XorR=12   Y=18   Z=27   SpecialJt=No   GUID=c0e07a8d-699c-49e5-a286-efe20643d920
   Joint=33   CoordSys=GLOBAL   CoordType=Cartesian   XorR=12   Y=12   Z=26   SpecialJt=No   GUID=5f9f2645-ce20-466e-9466-fe8d62e25cca
   Joint=34   CoordSys=GLOBAL   CoordType=Cartesian   XorR=12   Y=12   Z=20   SpecialJt=No   GUID=e6f5a5cb-e33f-43dc-b3c8-814a7eba619c
   Joint=35   CoordSys=GLOBAL   CoordType=Cartesian   XorR=12   Y=6   Z=25   SpecialJt=No   GUID=bc6e0e10-b64b-47f0-b164-f118fb7f9060
   Joint=36   CoordSys=GLOBAL   CoordType=Cartesian   XorR=12   Y=6   Z=20   SpecialJt=No   GUID=9e5c859e-bfb5-445a-99e5-9a9f86ec3c3b
   Joint=37   CoordSys=GLOBAL   CoordType=Cartesian   XorR=24   Y=0   Z=0   SpecialJt=No   GUID=e5deade1-6a20-4ed3-8aba-aab0cb1b10d1
   Joint=38   CoordSys=GLOBAL   CoordType=Cartesian   XorR=24   Y=0   Z=24   SpecialJt=No   GUID=9a8b5436-526e-46fb-bb96-90567eac0f84
   Joint=39   CoordSys=GLOBAL   CoordType=Cartesian   XorR=24   Y=36   Z=0   SpecialJt=No   GUID=9031dc8c-e215-44d5-a629-6961b229248f
   Joint=40   CoordSys=GLOBAL   CoordType=Cartesian   XorR=24   Y=36   Z=24   SpecialJt=No   GUID=bbbb7bdd-a716-4dc2-8d85-6e75179eb9f5
   Joint=41   CoordSys=GLOBAL   CoordType=Cartesian   XorR=24   Y=0   Z=20   SpecialJt=No   GUID=4c51fe24-edff-4891-b8c6-6d59c1ace8f6
   Joint=42   CoordSys=GLOBAL   CoordType=Cartesian   XorR=24   Y=36   Z=20   SpecialJt=No   GUID=62038476-63cd-4dda-97bf-9a9113c86a0a
   Joint=43   CoordSys=GLOBAL   CoordType=Cartesian   XorR=24   Y=30   Z=20   SpecialJt=No   GUID=2aa55635-10d6-46f2-a86c-5415bff253f5
   Joint=44   CoordSys=GLOBAL   CoordType=Cartesian   XorR=24   Y=30   Z=25   SpecialJt=No   GUID=538ec6bb-f487-4eca-a411-f1f752cb9501
   Joint=45   CoordSys=GLOBAL   CoordType=Cartesian   XorR=24   Y=24   Z=20   SpecialJt=No   GUID=67c3453d-5b3f-4006-a651-443c3c5ad3b5
   Joint=46   CoordSys=GLOBAL   CoordType=Cartesian   XorR=24   Y=24   Z=26   SpecialJt=No   GUID=73d858c4-bef6-4b90-9358-488f41713732
   Joint=47   CoordSys=GLOBAL   CoordType=Cartesian   XorR=24   Y=18   Z=20   SpecialJt=No   GUID=ac4de2b5-2dc9-4f4f-b68e-2f775dc65eae
   Joint=48   CoordSys=GLOBAL   CoordType=Cartesian   XorR=24   Y=18   Z=27   SpecialJt=No   GUID=5cdfd165-6fbb-4b44-aca3-b53d249bd112
   Joint=49   CoordSys=GLOBAL   CoordType=Cartesian   XorR=24   Y=12   Z=26   SpecialJt=No   GUID=6177ecb0-42ed-4889-9c1e-d42503685672
   Joint=50   CoordSys=GLOBAL   CoordType=Cartesian   XorR=24   Y=12   Z=20   SpecialJt=No   GUID=116d1a2b-7f85-4fec-9573-10ddd3700a66
   Joint=51   CoordSys=GLOBAL   CoordType=Cartesian   XorR=24   Y=6   Z=25   SpecialJt=No   GUID=728bf95d-0b76-4384-8bef-77fc75fcb051
   Joint=52   CoordSys=GLOBAL   CoordType=Cartesian   XorR=24   Y=6   Z=20   SpecialJt=No   GUID=0745c454-6537-43da-9353-81539916c0f6
   Joint=53   CoordSys=GLOBAL   CoordType=Cartesian   XorR=36   Y=0   Z=0   SpecialJt=No   GUID=8bf4641f-22f1-4719-8089-ab4444f4d5e3
   Joint=54   CoordSys=GLOBAL   CoordType=Cartesian   XorR=36   Y=0   Z=24   SpecialJt=No   GUID=52f91d7e-c9c2-4fb5-8775-9f27fb26117c
   Joint=55   CoordSys=GLOBAL   CoordType=Cartesian   XorR=36   Y=36   Z=0   SpecialJt=No   GUID=bc66a866-84a8-4373-8c78-d9022a5b32e4
   Joint=56   CoordSys=GLOBAL   CoordType=Cartesian   XorR=36   Y=36   Z=24   SpecialJt=No   GUID=1e9bb483-16e1-4d43-9039-7e6121e7e5ac
   Joint=57   CoordSys=GLOBAL   CoordType=Cartesian   XorR=36   Y=0   Z=20   SpecialJt=No   GUID=83689e7a-d5e4-4507-b3d3-5b8c5e378b4d
   Joint=58   CoordSys=GLOBAL   CoordType=Cartesian   XorR=36   Y=36   Z=20   SpecialJt=No   GUID=86c82dea-ff43-4ca2-8a09-706be77c4c87
   Joint=59   CoordSys=GLOBAL   CoordType=Cartesian   XorR=36   Y=30   Z=20   SpecialJt=No   GUID=01cccb6e-93ad-4104-9bac-752594f8feb0
   Joint=60   CoordSys=GLOBAL   CoordType=Cartesian   XorR=36   Y=30   Z=25   SpecialJt=No   GUID=0398b608-56b2-4543-adac-bbde4787e45d
   Joint=61   CoordSys=GLOBAL   CoordType=Cartesian   XorR=36   Y=24   Z=20   SpecialJt=No   GUID=16bb80c4-f3ed-4998-a3c4-35e917e65cb9
   Joint=62   CoordSys=GLOBAL   CoordType=Cartesian   XorR=36   Y=24   Z=26   SpecialJt=No   GUID=1cf71449-ba57-42fc-956c-0927cba8db23
   Joint=63   CoordSys=GLOBAL   CoordType=Cartesian   XorR=36   Y=18   Z=20   SpecialJt=No   GUID=07ac4c6e-7557-4df9-944f-638eac68d346
   Joint=64   CoordSys=GLOBAL   CoordType=Cartesian   XorR=36   Y=18   Z=27   SpecialJt=No   GUID=d2751522-d85c-43b8-b8ae-5e5a73ae81e8
   Joint=65   CoordSys=GLOBAL   CoordType=Cartesian   XorR=36   Y=12   Z=26   SpecialJt=No   GUID=34eccb50-bdaa-45e9-96f7-12714a70c731
   Joint=66   CoordSys=GLOBAL   CoordType=Cartesian   XorR=36   Y=12   Z=20   SpecialJt=No   GUID=29855dbd-8ea0-4b2e-8355-d2a997cc95e2
   Joint=67   CoordSys=GLOBAL   CoordType=Cartesian   XorR=36   Y=6   Z=25   SpecialJt=No   GUID=902c3c62-7d83-4fd8-a68e-1ea2936b074f
   Joint=68   CoordSys=GLOBAL   CoordType=Cartesian   XorR=36   Y=6   Z=20   SpecialJt=No   GUID=d95036da-9d60-4135-b602-754c8a5d9028
 
TABLE:  "JOINT LOADS - FORCE"
   Joint=7   LoadPat=DEAD   CoordSys=GLOBAL   F1=0.45   F2=0   F3=-20000   M1=0   M2=0   M3=0   GUID=0d23aa11-08af-4549-b032-4aa132d90429
   Joint=9   LoadPat=DEAD   CoordSys=GLOBAL   F1=0.45   F2=0   F3=-20000   M1=0   M2=0   M3=0   GUID=e26fbd49-c173-47e5-a003-3ea6d92edfa6
   Joint=11   LoadPat=DEAD   CoordSys=GLOBAL   F1=0.45   F2=0   F3=-20000   M1=0   M2=0   M3=0   GUID=feb42f57-8044-4980-8237-ae83068aa247
   Joint=18   LoadPat=DEAD   CoordSys=GLOBAL   F1=0.45   F2=0   F3=-20000   M1=0   M2=0   M3=0   GUID=4870210f-d35d-470c-ae0d-c425baa5207d
   Joint=20   LoadPat=DEAD   CoordSys=GLOBAL   F1=0.45   F2=0   F3=-20000   M1=0   M2=0   M3=0   GUID=08ffd163-4bc1-49bf-afa7-b6ba45deb56f
   Joint=27   LoadPat=DEAD   CoordSys=GLOBAL   F1=0.45   F2=0   F3=-20000   M1=0   M2=0   M3=0   GUID=0d23aa11-08af-4549-b032-4aa132d90429
   Joint=29   LoadPat=DEAD   CoordSys=GLOBAL   F1=0.45   F2=0   F3=-20000   M1=0   M2=0   M3=0   GUID=e26fbd49-c173-47e5-a003-3ea6d92edfa6
   Joint=31   LoadPat=DEAD   CoordSys=GLOBAL   F1=0.45   F2=0   F3=-20000   M1=0   M2=0   M3=0   GUID=feb42f57-8044-4980-8237-ae83068aa247
   Joint=34   LoadPat=DEAD   CoordSys=GLOBAL   F1=0.45   F2=0   F3=-20000   M1=0   M2=0   M3=0   GUID=4870210f-d35d-470c-ae0d-c425baa5207d
   Joint=36   LoadPat=DEAD   CoordSys=GLOBAL   F1=0.45   F2=0   F3=-20000   M1=0   M2=0   M3=0   GUID=08ffd163-4bc1-49bf-afa7-b6ba45deb56f
   Joint=43   LoadPat=DEAD   CoordSys=GLOBAL   F1=0.45   F2=0   F3=-20000   M1=0   M2=0   M3=0   GUID=0d23aa11-08af-4549-b032-4aa132d90429
   Joint=45   LoadPat=DEAD   CoordSys=GLOBAL   F1=0.45   F2=0   F3=-20000   M1=0   M2=0   M3=0   GUID=e26fbd49-c173-47e5-a003-3ea6d92edfa6
   Joint=47   LoadPat=DEAD   CoordSys=GLOBAL   F1=0.45   F2=0   F3=-20000   M1=0   M2=0   M3=0   GUID=feb42f57-8044-4980-8237-ae83068aa247
   Joint=50   LoadPat=DEAD   CoordSys=GLOBAL   F1=0.45   F2=0   F3=-20000   M1=0   M2=0   M3=0   GUID=4870210f-d35d-470c-ae0d-c425baa5207d
   Joint=52   LoadPat=DEAD   CoordSys=GLOBAL   F1=0.45   F2=0   F3=-20000   M1=0   M2=0   M3=0   GUID=08ffd163-4bc1-49bf-afa7-b6ba45deb56f
   Joint=59   LoadPat=DEAD   CoordSys=GLOBAL   F1=0.45   F2=0   F3=-20000   M1=0   M2=0   M3=0   GUID=0d23aa11-08af-4549-b032-4aa132d90429
   Joint=61   LoadPat=DEAD   CoordSys=GLOBAL   F1=0.45   F2=0   F3=-20000   M1=0   M2=0   M3=0   GUID=e26fbd49-c173-47e5-a003-3ea6d92edfa6
   Joint=63   LoadPat=DEAD   CoordSys=GLOBAL   F1=0.45   F2=0   F3=-20000   M1=0   M2=0   M3=0   GUID=feb42f57-8044-4980-8237-ae83068aa247
   Joint=66   LoadPat=DEAD   CoordSys=GLOBAL   F1=0.45   F2=0   F3=-20000   M1=0   M2=0   M3=0   GUID=4870210f-d35d-470c-ae0d-c425baa5207d
   Joint=68   LoadPat=DEAD   CoordSys=GLOBAL   F1=0.45   F2=0   F3=-20000   M1=0   M2=0   M3=0   GUID=08ffd163-4bc1-49bf-afa7-b6ba45deb56f
 
TABLE:  "JOINT PATTERN DEFINITIONS"
   Pattern=Default
 
TABLE:  "JOINT RESTRAINT ASSIGNMENTS"
   Joint=1   U1=Yes   U2=Yes   U3=Yes   R1=No   R2=No   R3=No
   Joint=3   U1=Yes   U2=Yes   U3=Yes   R1=No   R2=No   R3=No
   Joint=21   U1=Yes   U2=Yes   U3=Yes   R1=No   R2=No   R3=No
   Joint=23   U1=Yes   U2=Yes   U3=Yes   R1=No   R2=No   R3=No
   Joint=37   U1=Yes   U2=Yes   U3=Yes   R1=No   R2=No   R3=No
   Joint=39   U1=Yes   U2=Yes   U3=Yes   R1=No   R2=No   R3=No
   Joint=53   U1=Yes   U2=Yes   U3=Yes   R1=No   R2=No   R3=No
   Joint=55   U1=Yes   U2=Yes   U3=Yes   R1=No   R2=No   R3=No
 
TABLE:  "LOAD CASE DEFINITIONS"
   Case=DEAD   Type=LinStatic   InitialCond=Zero   DesTypeOpt="Prog Det"   DesignType=Dead   DesActOpt="Prog Det"   DesignAct=Non-Composite   AutoType=None   RunCase=Yes   GUID=41f32454-cbe5-47d5-b06c-c2392eb929e6
   Case=MODAL   Type=LinModal   InitialCond=Zero   DesTypeOpt="Prog Det"   DesignType=Other   DesActOpt="Prog Det"   DesignAct=Other   AutoType=None   RunCase=Yes   GUID=6c06d562-ac53-4338-ab5f-2184750a9917
   Case=LIVE   Type=LinStatic   InitialCond=Zero   DesTypeOpt="Prog Det"   DesignType=Live   DesActOpt="Prog Det"   DesignAct="Short-Term Composite"   AutoType=None   RunCase=Yes   GUID=1b68eb6c-fc26-423c-a2bb-a8db860c3623
   Case=WIND   Type=LinStatic   InitialCond=Zero   DesTypeOpt="Prog Det"   DesignType=Wind   DesActOpt="Prog Det"   DesignAct="Short-Term Composite"   AutoType=None   RunCase=Yes   GUID=b87ee048-b269-457a-a809-8e8c6164d046
 
TABLE:  "LOAD PATTERN DEFINITIONS"
   LoadPat=DEAD   DesignType=Dead   SelfWtMult=1   GUID=dccd45a3-f211-419a-aa4d-45f4b0f20fa5
   LoadPat=LIVE   DesignType=Live   SelfWtMult=0   GUID=a9b0246c-a614-4b8b-ab50-3f58eaea5a24
   LoadPat=WIND   DesignType=Wind   SelfWtMult=0   AutoLoad=None   GUID=f7e97230-96f6-42b0-9032-1a220bcbf71f
 
TABLE:  "MASS SOURCE"
   MassSource=MSSSRC1   Elements=Yes   Masses=Yes   Loads=No   IsDefault=Yes
 
TABLE:  "MATERIAL PROPERTIES 01 - GENERAL"
   Material=4000Psi   Type=Concrete   Grade="f'c 4000 psi"   SymType=Isotropic   TempDepend=No   Color=Yellow   Notes="Customary f'c 4000 psi 1/1/2019 1:24:41 AM"
   Material=A500GrB46   Type=Steel   Grade="Grade B, Fy 46 (HSS Rect.)"   SymType=Isotropic   TempDepend=No   Color=Yellow   Notes="United States ASTM A500 Grade B, Fy 46 (HSS Rect.) added 1/1/2019 1:29:44 AM"
   Material=A992Fy50   Type=Steel   Grade="Grade 50"   SymType=Isotropic   TempDepend=No   Color=Magenta   Notes="ASTM A992 Grade 50 1/1/2019 1:24:41 AM"
 
TABLE:  "MATERIAL PROPERTIES 02 - BASIC MECHANICAL PROPERTIES"
   Material=4000Psi   UnitWeight=150.00000000768   UnitMass=4.6621423155456   E1=519119496   G12=216299790   U12=0.2   A1=5.5E-06
   Material=A500GrB46   UnitWeight=490   UnitMass=15.2296649007508   E1=4176000000   G12=1606153846.15385   U12=0.3   A1=6.5E-06
   Material=A992Fy50   UnitWeight=490   UnitMass=15.2296649007508   E1=4176000000   G12=1606153846.15385   U12=0.3   A1=6.5E-06
 
TABLE:  "MATERIAL PROPERTIES 03A - STEEL DATA"
   Material=A500GrB46   Fy=6624000   Fu=8352000   EffFy=7286400   EffFu=9187200   SSCurveOpt=Simple   SSHysType=Kinematic   SHard=0.018   SMax=0.12   SRup=0.18   FinalSlope=-0.1
   Material=A992Fy50   Fy=7200000   Fu=9360000   EffFy=7920000   EffFu=10296000   SSCurveOpt=Simple   SSHysType=Kinematic   SHard=0.015   SMax=0.11   SRup=0.17   FinalSlope=-0.1
 
TABLE:  "MATERIAL PROPERTIES 03B - CONCRETE DATA"
   Material=4000Psi   Fc=576000   eFc=576000   LtWtConc=No   SSCurveOpt=Mander   SSHysType=Takeda   SFc=0.00221914   SCap=0.005   FinalSlope=-0.1   FAngle=0   DAngle=0
 
TABLE:  "MATERIAL PROPERTIES 06 - DAMPING PARAMETERS"
   Material=4000Psi   ModalRatio=0   VisMass=0   VisStiff=0   HysMass=0   HysStiff=0
   Material=A500GrB46   ModalRatio=0   VisMass=0   VisStiff=0   HysMass=0   HysStiff=0
   Material=A992Fy50   ModalRatio=0   VisMass=0   VisStiff=0   HysMass=0   HysStiff=0
 
TABLE:  "OPTIONS - COLORS - DISPLAY"
   DeviceType=Screen   Points=Blue   LinesFrame=Blue   LinesFrmDL=Blue   LinesCable=Green   LinesTendon=Green   SpringLinks=Green   Restraints=Green   Releases=Green   Axes=Cyan   Text=Black   ShadowLines=Gray8Dark   GuideLines=Gray8Dark _
        Highlight=Red   Selection=10504778   AreaFillBot=Red   AreaFillTop=16744703   AreaFillSd=Red   AreaEdge=DarkRed   SolidF1=Red   SolidF2=Blue   SolidF3=Green   SolidF4=Yellow   SolidF5=White   SolidF6=Cyan   SolidEdge=DarkRed _
        Floor=Gray4   Background=White   BGLowLeft=White   BGLowRight=White   BGUpRight=White   Darkness=0.5
   DeviceType=Printer   Points=Gray8Dark   LinesFrame=Black   LinesFrmDL=Gray4   LinesCable=Black   LinesTendon=Black   SpringLinks=Gray8Dark   Restraints=Gray8Dark   Releases=Gray4   Axes=Black   Text=Black   ShadowLines=Gray4 _
        GuideLines=Gray4   Highlight=Black   Selection=Black   AreaFillBot=Gray4   AreaFillTop=Gray8Dark   AreaFillSd=Gray4   AreaEdge=Black   SolidF1=Gray1Light   SolidF2=Gray2   SolidF3=Gray3   SolidF4=Gray4   SolidF5=Gray5 _
        SolidF6=Gray6   SolidEdge=Black   Floor=Gray4   Background=White   BGLowLeft=White   BGLowRight=White   BGUpRight=White   Darkness=0.5
   DeviceType="Color Printer"   Points=Blue   LinesFrame=Blue   LinesFrmDL=Blue   LinesCable=Green   LinesTendon=Green   SpringLinks=Green   Restraints=Green   Releases=Green   Axes=Cyan   Text=Black   ShadowLines=Gray8Dark _
        GuideLines=Gray8Dark   Highlight=Red   Selection=10504778   AreaFillBot=Red   AreaFillTop=16744703   AreaFillSd=Red   AreaEdge=DarkRed   SolidF1=Red   SolidF2=Blue   SolidF3=Green   SolidF4=Yellow   SolidF5=White   SolidF6=Cyan _
        SolidEdge=DarkRed   Floor=Gray4   Background=White   BGLowLeft=White   BGLowRight=White   BGUpRight=White   Darkness=0.5
 
TABLE:  "OPTIONS - COLORS - OUTPUT"
   DeviceType=Screen   Contour1=13107400   Contour2=6553828   Contour3=Red   Contour4=16639   Contour5=Orange   Contour6=43775   Contour7=54527   Contour8=Yellow   Contour9=65408   Contour10=Green   Contour11=8453888   Contour12=Cyan _
        Contour13=16755200   Contour14=16733440   Contour15=Blue   Transpare=0.5   Ratio1=Cyan   Ratio2=Green   Ratio3=Yellow   Ratio4=Orange   Ratio5=Red   RatioNotD=Gray4   RatioNotC=Red   RatioVal1=0.5   RatioVal2=0.7   RatioVal3=0.9 _
        RatioVal4=1   DFillPos=Blue   DFillNeg=Red   DFillRPos=Green   DFillRNeg=Green
   DeviceType=Printer   Contour1=Black   Contour2=3158064   Contour3=4210752   Contour4=5263440   Contour5=6316128   Contour6=7368816   Contour7=Gray8Dark   Contour8=Gray7   Contour9=Gray6   Contour10=Gray5   Contour11=Gray4 _
        Contour12=Gray3   Contour13=Gray2   Contour14=Gray1Light   Contour15=White   Transpare=0   Ratio1=Gray2   Ratio2=Gray4   Ratio3=Gray8Dark   Ratio4=4210752   Ratio5=Black   RatioNotD=Gray4   RatioNotC=Black   RatioVal1=0.5 _
        RatioVal2=0.7   RatioVal3=0.9   RatioVal4=1   DFillPos=Gray8Dark   DFillNeg=Gray8Dark   DFillRPos=4210752   DFillRNeg=4210752
   DeviceType="Color Printer"   Contour1=13107400   Contour2=6553828   Contour3=Red   Contour4=16639   Contour5=Orange   Contour6=43775   Contour7=54527   Contour8=Yellow   Contour9=65408   Contour10=Green   Contour11=8453888 _
        Contour12=Cyan   Contour13=16755200   Contour14=16733440   Contour15=Blue   Transpare=0   Ratio1=Cyan   Ratio2=Green   Ratio3=Yellow   Ratio4=Orange   Ratio5=Red   RatioNotD=Gray4   RatioNotC=Red   RatioVal1=0.5   RatioVal2=0.7 _
        RatioVal3=0.9   RatioVal4=1   DFillPos=Blue   DFillNeg=Red   DFillRPos=Green   DFillRNeg=Green
 
TABLE:  "PREFERENCES - ALUMINUM DESIGN - AA-ASD 2000"
   THDesign=Envelopes   FrameType="Moment Frame"   SRatioLimit=1   MaxIter=1   LatFact=1.33333333333333   UseLatFact=No   Bridge=No
 
TABLE:  "PREFERENCES - COLD FORMED DESIGN - AISI-ASD96"
   THDesign=Envelopes   FrameType="Braced Frame"   SRatioLimit=1   MaxIter=1   OmegaBS=1.67   OmegaBUS=1.67   OmegaBLTB=1.67   OmegaVS=1.67   OmegaVNS=1.5   OmegaT=1.67   OmegaC=1.8
 
TABLE:  "PREFERENCES - CONCRETE DESIGN - ACI 318-14"
   THDesign=Envelopes   NumCurves=24   NumPoints=11   MinEccen=Yes   PatLLF=0.75   UFLimit=0.95   SeisCat=D   Rho=1   Sds=0.5   PhiT=0.9   PhiCTied=0.65   PhiCSpiral=0.75   PhiV=0.75   PhiVSeismic=0.6   PhiVJoint=0.85
 
TABLE:  "PREFERENCES - DIMENSIONAL"
   MergeTol=0.00833333333333333   FineGrid=1   Nudge=1   SelectTol=3   SnapTol=12   SLineThick=2   PLineThick=4   MaxFont=8   MinFont=3   AutoZoom=10   ShrinkFact=70   TextFileLen=240
 
TABLE:  "PREFERENCES - STEEL DESIGN - AISC360-05-IBC2006"
   THDesign=Envelopes   FrameType=SMF   PatLLF=0.75   SRatioLimit=0.95   MaxIter=1   SDC=D   SeisCode=Yes   SeisLoad=Yes   ImpFactor=1   SystemRho=1   SystemSds=0.5   SystemR=8   SystemCd=5.5   Omega0=3   Provision=LRFD _
        AMethod="Direct Analysis"   SOMethod="General 2nd Order"   SRMethod="Tau-b Fixed"   NLCoeff=0.002   PhiB=0.9   PhiC=0.9   PhiTY=0.9   PhiTF=0.75   PhiV=0.9   PhiVRolledI=1   PhiVT=0.9   PlugWeld=Yes   HSSWelding=ERW   HSSReduceT=No _
        CheckDefl=No   DLRat=120   SDLAndLLRat=120   LLRat=360   TotalRat=240   NetRat=240
 
TABLE:  "PROGRAM CONTROL"
   ProgramName=SAP2000   Version=20.2.0   CurrUnits="lb, ft, F"   SteelCode=AISC360-05/IBC2006   ConcCode="ACI 318-14"   AlumCode="AA-ASD 2000"   ColdCode=AISI-ASD96   RegenHinge=Yes
 
TABLE:  "PROJECT INFORMATION"
   Item="Company Name"
   Item="Client Name"
   Item="Project Name"
   Item="Project Number"
   Item="Model Name"
   Item="Model Description"
   Item="Revision Number"
   Item="Frame Type"
   Item=Engineer
   Item=Checker
   Item=Supervisor
   Item="Issue Code"
   Item="Design Code"
 
TABLE:  "REBAR SIZES"
   RebarID=#2   Area=0.000347222222222222   Diameter=0.0208333333333333
   RebarID=#3   Area=0.000763888884749677   Diameter=0.03125
   RebarID=#4   Area=0.00138888890958495   Diameter=0.0416666666666667
   RebarID=#5   Area=0.00215277779433462   Diameter=0.0520833333333333
   RebarID=#6   Area=0.00305555553899871   Diameter=0.0625
   RebarID=#7   Area=0.00416666683223512   Diameter=0.0729166666666667
   RebarID=#8   Area=0.00548611126012272   Diameter=0.0833333333333333
   RebarID=#9   Area=0.00694444444444444   Diameter=0.0940000017484029
   RebarID=#10   Area=0.00881944431198968   Diameter=0.105833331743876
   RebarID=#11   Area=0.010833332935969   Diameter=0.11749999721845
   RebarID=#14   Area=0.015625   Diameter=0.141083329916
   RebarID=#18   Area=0.0277777777777778   Diameter=0.188083330790202
   RebarID=10M   Area=0.00107639107025332   Diameter=0.0370734930038452
   RebarID=15M   Area=0.00215278214050664   Diameter=0.0524934381246567
   RebarID=20M   Area=0.00322917331424024   Diameter=0.063976377248764
   RebarID=25M   Area=0.00538195545474688   Diameter=0.0826771706342697
   RebarID=30M   Area=0.00753473738829295   Diameter=0.0980971157550812
   RebarID=35M   Area=0.0107639109094938   Diameter=0.117125988006592
   RebarID=45M   Area=0.0161458667781618   Diameter=0.143372704585393
   RebarID=55M   Area=0.0269097768598133   Diameter=0.185039381186167
   RebarID=6d   Area=0.000304618669259879   Diameter=0.019685039917628
   RebarID=8d   Area=0.000541424689193567   Diameter=0.0262467190623283
   RebarID=10d   Area=0.000844966982387834   Diameter=0.0328083982070287
   RebarID=12d   Area=0.00121632197664844   Diameter=0.0393700798352559
   RebarID=14d   Area=0.00165764232062631   Diameter=0.0459317614634832
   RebarID=16d   Area=0.00216354615986347   Diameter=0.0524934381246567
   RebarID=20d   Area=0.00337986792955134   Diameter=0.0656167964140574
   RebarID=25d   Area=0.00528508010837767   Diameter=0.0820209980010986
   RebarID=26d   Area=0.00571563674343957   Diameter=0.0853018363316854
   RebarID=28d   Area=0.00663056928250525   Diameter=0.0918635229269663
   RebarID=N12   Area=0.00121632197664844   Diameter=0.0393700798352559
   RebarID=N16   Area=0.00216354615986347   Diameter=0.0524934381246567
   RebarID=N20   Area=0.00337986792955134   Diameter=0.0656167964140574
   RebarID=N24   Area=0.00486528790659375   Diameter=0.0787401596705119
   RebarID=N28   Area=0.00663056928250525   Diameter=0.0918635229269663
   RebarID=N32   Area=0.00865418463945389   Diameter=0.104986876249313
   RebarID=N36   Area=0.0109791888131036   Diameter=0.118110239505768
 
TABLE:  "SOLID PROPERTY DEFINITIONS"
   SolidProp=Solid1   Material=4000Psi   MatAngleA=0   MatAngleB=0   MatAngleC=0   InComp=Yes   Color=Cyan
 
END TABLE DATA
